version 2
run General-0-20220716-17:46:26-1553
attr configname General
attr datetime 20220716-17:46:26
attr experiment General
attr inifile omnetpp.ini
attr iterationvars ""
attr iterationvarsf ""
attr measurement ""
attr network Network
attr processid 1553
attr repetition 0
attr replication #0
attr resultdir results
attr runnumber 0
attr seedset 0
param Network.node[{0,1,2,3,4,6,7}].app.interArrivalTime exponential(1)
param Network.node[{0,1,2,3,4,6,7}].app.packetByteSize 125000
param Network.node[{0,1,2,3,4,6,7}].app.destination 5

vector 0 Network.node[7].net packetHops ETV
vector 1 Network.node[7].net Delay_per_node ETV
vector 2 Network.node[7].lnk[0] "Buffer Size" ETV
vector 3 Network.node[6].net packetHops ETV
vector 4 Network.node[6].net Delay_per_node ETV
vector 5 Network.node[6].lnk[0] "Buffer Size" ETV
vector 6 Network.node[0].net packetHops ETV
vector 7 Network.node[0].net Delay_per_node ETV
vector 8 Network.node[0].lnk[0] "Buffer Size" ETV
vector 9 Network.node[4].net packetHops ETV
vector 10 Network.node[4].net Delay_per_node ETV
vector 11 Network.node[4].lnk[0] "Buffer Size" ETV
vector 12 Network.node[5].net packetHops ETV
vector 13 Network.node[5].net Delay_per_node ETV
vector 14 Network.node[5].app Delay_destine_node ETV
vector 15 Network.node[1].net packetHops ETV
vector 16 Network.node[1].net Delay_per_node ETV
vector 17 Network.node[1].lnk[0] "Buffer Size" ETV
vector 18 Network.node[3].net packetHops ETV
vector 19 Network.node[3].net Delay_per_node ETV
vector 20 Network.node[3].lnk[0] "Buffer Size" ETV
vector 21 Network.node[2].net packetHops ETV
vector 22 Network.node[2].net Delay_per_node ETV
vector 23 Network.node[2].lnk[0] "Buffer Size" ETV
0	2	0.353159139138	0
0	47	1.898660388484	2
0	66	2.576683561174	0
0	88	2.898660388484	2
0	138	3.898660388484	2
0	175	4.898660388484	2
0	199	5.174937647023	0
0	215	5.898660388484	3
0	255	6.788939721916	0
0	267	6.898660388484	4
0	298	7.661260916958	0
0	316	7.898660388484	2
0	346	8.399088208714	0
0	374	8.898660388484	3
0	388	9.008170631897	0
0	426	9.898660388484	4
0	440	9.969551570963	0
0	475	10.898660388484	4
0	502	11.114690525663	0
0	521	11.898660388484	5
0	543	12.213602993214	0
0	555	12.449809699297	0
0	568	12.82877166358	0
0	577	12.898660388484	2
0	607	13.221884220884	0
0	635	13.898660388484	2
0	681	14.898660388484	2
0	730	15.898660388484	2
0	782	16.898660388484	2
0	819	17.67638106706	0
0	828	17.898660388484	3
0	871	18.898660388484	2
0	896	19.496199986344	0
0	917	19.898660388484	2
0	935	20.208783579677	0
0	963	20.898660388484	3
0	1000	21.553028851829	0
0	1015	21.898660388484	2
0	1055	22.719902378378	0
0	1064	22.898660388484	2
0	1092	23.555999910348	0
0	1110	23.898660388484	4
0	1131	24.267247847565	0
0	1156	24.898660388484	2
0	1183	25.125143488639	0
0	1186	25.2664742022	0
0	1202	25.898660388484	3
0	1226	26.308254856379	0
0	1242	26.615772580141	0
0	1260	26.898660388484	2
0	1293	27.420569979942	0
0	1306	27.735291640797	0
0	1318	27.898660388484	3
0	1335	28.075638379032	0
0	1345	28.36165935154	0
0	1370	28.898660388484	2
0	1391	29.220052319369	0
0	1394	29.47247231226	0
0	1416	29.898660388484	3
0	1456	30.898660388484	2
0	1490	31.693979210734	0
0	1499	31.898660388484	2
0	1523	32.224701707351	0
0	1548	32.898660388484	6
0	1588	33.898660388484	3
0	1612	34.354201103419	0
0	1634	34.898660388484	5
0	1658	35.116068874715	0
0	1683	35.898660388484	3
0	1700	36.080522440209	0
0	1741	36.898660388484	4
0	1774	37.339565957473	0
0	1790	37.776593971247	0
0	1793	37.810797389605	0
0	1805	37.898660388484	2
0	1845	38.869806774986	0
0	1857	38.898660388484	3
0	1887	39.327979658944	0
0	1906	39.898660388484	4
0	1946	40.898660388484	3
0	1966	40.968877236871	0
0	1989	41.602339854594	0
0	1998	41.898660388484	6
0	2035	42.898660388484	2
0	2075	43.628248671697	0
0	2087	43.898660388484	3
0	2133	44.898660388484	3
0	2160	45.274967773024	0
0	2179	45.819824901169	0
0	2188	45.898660388484	2
0	2234	46.898660388484	4
0	2268	47.898660388484	2
0	2311	48.898660388484	3
0	2364	49.529785493073	0
0	2382	49.898660388484	2
0	2425	50.898660388484	5
0	2474	51.898660388484	2
0	2504	52.41432978148	0
0	2520	52.898660388484	3
0	2563	53.898660388484	2
0	2581	54.41150174897	0
0	2618	54.898660388484	4
0	2624	54.919366871657	0
0	2646	55.521045858181	0
0	2664	55.898660388484	2
0	2719	56.898660388484	3
0	2765	57.898660388484	3
0	2808	58.898660388484	2
0	2822	59.035524538718	0
0	2857	59.898660388484	6
0	2871	60.165880084629	0
0	2877	60.410371106672	0
0	2909	60.898660388484	2
0	2936	61.498275540286	0
0	2952	61.898660388484	5
0	2966	61.981913927776	0
0	2989	62.86941585626	0
0	2992	62.869471208155	0
0	3001	62.898660388484	2
0	3044	63.898660388484	3
0	3087	64.898660388484	2
0	3093	64.930292449036	0
0	3111	65.173010942708	0
0	3136	65.898660388484	6
0	3185	66.898660388484	2
0	3237	67.898660388484	2
0	3261	68.117491220131	0
0	3292	68.898660388484	3
0	3306	69.001276876164	0
0	3313	69.32547598965	0
0	3319	69.467118024445	0
0	3344	69.898660388484	2
0	3399	70.728930697932	0
0	3411	70.898660388484	4
0	3451	71.898660388484	6
0	3481	72.17848547436	0
0	3503	72.898660388484	3
0	3521	73.056700553078	0
0	3527	73.402220136787	0
0	3561	73.677748073825	0
0	3570	73.898660388484	4
0	3610	74.898660388484	2
0	3628	75.215576788302	0
0	3634	75.416018983388	0
0	3659	75.898660388484	4
0	3680	76.134265463496	0
0	3705	76.898660388484	4
0	3723	77.066877318765	0
0	3726	77.3304544316	0
0	3745	77.898660388484	2
0	3779	78.898660388484	2
0	3793	79.441343205983	0
0	3819	79.898660388484	5
0	3837	80.10718569262	0
0	3843	80.453938996409	0
0	3871	80.898660388484	2
0	3911	81.898660388484	2
0	3939	82.344040694505	0
0	3955	82.898660388484	2
0	3992	83.744716391465	0
0	3999	83.891941428778	0
0	4004	83.898660388484	3
0	4030	84.450949098769	0
0	4055	84.898660388484	6
0	4075	85.166994416763	0
0	4094	85.898660388484	3
0	4111	86.0091307196	0
0	4131	86.898660388484	5
0	4162	87.564425079955	0
0	4174	87.898660388484	2
0	4191	88.074415913804	0
0	4211	88.59738356746	0
0	4220	88.739509078853	0
0	4232	88.898660388484	4
0	4290	89.898660388484	2
0	4333	90.898660388484	2
0	4373	91.79436885786	0
0	4385	91.898660388484	3
0	4440	92.898660388484	3
0	4460	93.092814493465	0
0	4492	93.836397685241	0
0	4501	93.898660388484	2
0	4559	94.898660388484	2
0	4590	95.590112330265	0
0	4596	95.786574216162	0
0	4602	95.858993326277	0
0	4605	95.868728735618	0
0	4614	95.898660388484	2
0	4631	96.187312583497	0
0	4654	96.650702611037	0
0	4675	96.898660388484	6
0	4712	97.898660388484	2
0	4770	98.898660388484	3
0	4790	99.24315121982	0
0	4819	99.898660388484	2
0	4836	100.056049581006	0
0	4880	100.898660388484	4
0	4906	101.104338685962	0
0	4912	101.20113615827	0
0	4941	101.898660388484	6
0	4975	102.898660388484	3
0	5009	103.615152588778	0
0	5027	103.898660388484	2
0	5067	104.786416283725	0
0	5076	104.898660388484	4
0	5093	105.060879805729	0
0	5096	105.235874853947	0
0	5099	105.245689290345	0
0	5128	105.898660388484	2
0	5168	106.837245413138	0
0	5177	106.898660388484	3
0	5183	106.939797306142	0
0	5217	107.898660388484	2
0	5260	108.898660388484	3
0	5306	109.898660388484	2
0	5320	109.97373987854	0
0	5358	110.898660388484	5
0	5398	111.898660388484	5
0	5447	112.898660388484	2
0	5461	112.955519535866	0
0	5470	113.160371803013	0
0	5502	113.898660388484	3
0	5508	113.928834380404	0
0	5519	114.032505217046	0
0	5557	114.898660388484	2
0	5612	115.898660388484	4
0	5632	116.068799404318	0
0	5635	116.101803389374	0
0	5641	116.351754206024	0
0	5658	116.643700277753	0
0	5685	116.898660388484	2
0	5702	117.115668365525	0
0	5722	117.584589692798	0
0	5737	117.898660388484	3
0	5754	117.955751413599	0
0	5777	118.898660388484	2
0	5802	119.600934840673	0
0	5820	119.898660388484	3
0	5837	120.05996276816	0
0	5840	120.400199987773	0
0	5847	120.473251644928	0
0	5857	120.749556837856	0
0	5869	120.898660388484	2
0	5907	121.835760149013	0
0	5919	121.898660388484	6
0	5959	122.898660388484	2
0	5992	123.759498719681	0
0	6008	123.898660388484	3
0	6025	124.206638622278	0
0	6044	124.657877420769	0
0	6063	124.898660388484	2
0	6069	124.922659694107	0
0	6109	125.898660388484	2
0	6146	126.898660388484	4
0	6176	127.691804176945	0
0	6189	127.898660388484	2
0	6206	127.978713272329	0
0	6209	128.090657813473	0
0	6219	128.763040715511	0
0	6232	128.898660388484	2
0	6281	129.898660388484	3
0	6318	130.898660388484	4
0	6332	130.984254898711	0
0	6344	131.302309443902	0
0	6360	131.77118759953	0
0	6376	131.898660388484	2
0	6390	132.042743391212	0
0	6399	132.231308115463	0
0	6409	132.582629397005	0
0	6434	132.898660388484	2
0	6480	133.898660388484	2
0	6513	134.753855278359	0
0	6516	134.778783374087	0
0	6529	134.898660388484	3
0	6569	135.898660388484	3
0	6586	135.981340718796	0
0	6602	136.58249536518	0
0	6615	136.898660388484	3
0	6621	136.928928692675	0
0	6670	137.898660388484	2
0	6690	138.043386924391	0
0	6725	138.898660388484	2
0	6765	139.898660388484	5
0	6782	140.300863715147	0
0	6799	140.822975019558	0
0	6808	140.898660388484	3
0	6860	141.898660388484	3
0	6906	142.898660388484	2
0	6949	143.898660388484	2
0	6979	144.542383330457	0
0	6985	144.592298932883	0
0	6995	144.884849534074	0
0	7000	144.898660388484	2
0	7024	145.475684754479	0
0	7037	145.898660388484	4
0	7043	145.90412578327	0
0	7068	146.618759970648	0
0	7083	146.898660388484	2
0	7123	147.759803304901	0
0	7132	147.898660388484	5
0	7174	148.887563738474	0
0	7179	148.898660388484	2
0	7202	149.219824362053	0
0	7231	149.898660388484	3
0	7260	150.458860869431	0
0	7267	150.552616257041	0
0	7292	150.898660388484	4
0	7318	151.25119726312	0
0	7353	151.898660388484	2
0	7399	152.898660388484	3
0	7448	153.898660388484	2
0	7485	154.720591101897	0
0	7494	154.898660388484	3
0	7531	155.898660388484	4
0	7537	155.912906876116	0
0	7559	156.625863355244	0
0	7574	156.898660388484	2
0	7591	157.032276221991	0
0	7597	157.134578003001	0
0	7617	157.718038175306	0
0	7629	157.898660388484	2
0	7675	158.898660388484	4
0	7681	158.902065911653	0
0	7712	159.878357934622	0
0	7721	159.898660388484	2
0	7738	160.276306329271	0
0	7755	160.794534177375	0
0	7764	160.898660388484	2
0	7804	161.898660388484	2
0	7847	162.848586661239	0
0	7856	162.898660388484	3
0	7905	163.898660388484	4
0	7960	164.898660388484	3
0	7997	165.898660388484	3
0	8017	166.299596790598	0
0	8023	166.474224587078	0
0	8046	166.898660388484	2
0	8086	167.556326471562	0
0	8089	167.596748049215	0
0	8104	167.898660388484	6
0	8128	168.166184163086	0
0	8156	168.898660388484	2
0	8199	169.898660388484	2
0	8242	170.549252436278	0
0	8260	170.898660388484	2
0	8274	171.024461875063	0
0	8284	171.216419777014	0
0	8297	171.613898856937	0
0	8306	171.837497915272	0
0	8315	171.898660388484	2
0	8346	172.772078331621	0
0	8355	172.898660388484	3
0	8373	173.10615341468	0
0	8395	173.898660388484	2
0	8413	174.108715823008	0
0	8432	174.675417782858	0
0	8444	174.898660388484	3
0	8465	175.087118360731	0
0	8496	175.898660388484	2
0	8513	175.985520727168	0
0	8542	176.898660388484	3
0	8582	177.709912612636	0
0	8591	177.898660388484	2
0	8622	178.724871571006	0
0	8631	178.898660388484	2
0	8668	179.898660388484	2
0	8705	180.898660388484	4
0	8766	181.898660388484	2
0	8793	182.464020049046	0
0	8800	182.661751816987	0
0	8812	182.898660388484	2
0	8861	183.898660388484	4
0	8904	184.898660388484	2
0	8932	185.84963598926	0
0	8941	185.898660388484	3
0	8965	186.360131151963	0
0	8972	186.597797023069	0
0	8978	186.757741236422	0
0	8990	186.898660388484	2
0	9039	187.898660388484	6
0	9045	187.91271576999	0
0	9085	188.878151569687	0
0	9094	188.898660388484	2
0	9146	189.898660388484	2
0	9201	190.898660388484	2
0	9219	191.147120656311	0
0	9235	191.760087924993	0
0	9241	191.820762225168	0
0	9250	191.898660388484	3
0	9264	191.952973824997	0
0	9274	192.375663613064	0
0	9293	192.898660388484	4
0	9333	193.626612273723	0
0	9348	193.898660388484	2
0	9385	194.710160462016	0
0	9397	194.898660388484	2
0	9418	195.101845001898	0
0	9421	195.218915041226	0
0	9452	195.898660388484	3
0	9504	196.898660388484	2
0	9524	197.010569377113	0
0	9559	197.898660388484	3
0	9573	198.017842065503	0
0	9608	198.898660388484	2
0	9645	199.898660388484	2
1	2	0.353159139138	0
1	47	1.898660388484	1.0001
1	66	2.576683561174	0
1	88	2.898660388484	1.681743859158
1	138	3.898660388484	2.032297510907
1	175	4.898660388484	2.279623397594
1	199	5.174937647023	0
1	215	5.898660388484	4.039056176409
1	255	6.788939721916	0
1	267	6.898660388484	4.9471150526
1	298	7.661260916958	0
1	316	7.898660388484	3.471254133319
1	346	8.399088208714	0
1	374	8.898660388484	5.366844976084
1	388	9.008170631897	0
1	426	9.898660388484	7.1076821997
1	440	9.969551570963	0
1	475	10.898660388484	8.033996844235
1	502	11.114690525663	0
1	521	11.898660388484	10.019696334281
1	543	12.213602993214	0
1	555	12.449809699297	0
1	568	12.82877166358	0
1	577	12.898660388484	4.626032264177
1	607	13.221884220884	0
1	635	13.898660388484	5.419828982147
1	681	14.898660388484	6.17578049141
1	730	15.898660388484	7.030502464118
1	782	16.898660388484	8.011533894917
1	819	17.67638106706	0
1	828	17.898660388484	11.216675047408
1	871	18.898660388484	9.61976308424
1	896	19.496199986344	0
1	917	19.898660388484	10.368321152165
1	935	20.208783579677	0
1	963	20.898660388484	14.09080063797
1	1000	21.553028851829	0
1	1015	21.898660388484	11.879764102857
1	1055	22.719902378378	0
1	1064	22.898660388484	12.282018026039
1	1092	23.555999910348	0
1	1110	23.898660388484	20.622418847992
1	1131	24.267247847565	0
1	1156	24.898660388484	13.085910226582
1	1183	25.125143488639	0
1	1186	25.2664742022	0
1	1202	25.898660388484	18.93607095747
1	1226	26.308254856379	0
1	1242	26.615772580141	0
1	1260	26.898660388484	13.975312780895
1	1293	27.420569979942	0
1	1306	27.735291640797	0
1	1318	27.898660388484	20.165236299003
1	1335	28.075638379032	0
1	1345	28.36165935154	0
1	1370	28.898660388484	15.130884987367
1	1391	29.220052319369	0
1	1394	29.47247231226	0
1	1416	29.898660388484	22.05329013837
1	1456	30.898660388484	16.896583468591
1	1490	31.693979210734	0
1	1499	31.898660388484	17.720669923165
1	1523	32.224701707351	0
1	1548	32.898660388484	31.921653962091
1	1588	33.898660388484	25.411595436339
1	1612	34.354201103419	0
1	1634	34.898660388484	32.36581376706
1	1658	35.116068874715	0
1	1683	35.898660388484	26.571260730727
1	1700	36.080522440209	0
1	1741	36.898660388484	31.834931184553
1	1774	37.339565957473	0
1	1790	37.776593971247	0
1	1793	37.810797389605	0
1	1805	37.898660388484	18.360569572922
1	1845	38.869806774986	0
1	1857	38.898660388484	28.611712753359
1	1887	39.327979658944	0
1	1906	39.898660388484	34.193222011875
1	1946	40.898660388484	29.662218169862
1	1966	40.968877236871	0
1	1989	41.602339854594	0
1	1998	41.898660388484	40.438051857143
1	2035	42.898660388484	19.598642288418
1	2075	43.628248671697	0
1	2087	43.898660388484	31.603384038374
1	2133	44.898660388484	32.159980009753
1	2160	45.274967773024	0
1	2179	45.819824901169	0
1	2188	45.898660388484	20.595401765911
1	2234	46.898660388484	40.574292552248
1	2268	47.898660388484	21.335467955802
1	2311	48.898660388484	35.707877949528
1	2364	49.529785493073	0
1	2382	49.898660388484	22.452338913843
1	2425	50.898660388484	47.866941758044
1	2474	51.898660388484	23.123581040093
1	2504	52.41432978148	0
1	2520	52.898660388484	38.702006944361
1	2563	53.898660388484	24.274360228529
1	2581	54.41150174897	0
1	2618	54.898660388484	47.438353610538
1	2624	54.919366871657	0
1	2646	55.521045858181	0
1	2664	55.898660388484	25.681736201077
1	2719	56.898660388484	41.643264229267
1	2765	57.898660388484	41.999483227664
1	2808	58.898660388484	26.80827632122
1	2822	59.035524538718	0
1	2857	59.898660388484	56.86915573952
1	2871	60.165880084629	0
1	2877	60.410371106672	0
1	2909	60.898660388484	27.682994304376
1	2936	61.498275540286	0
1	2952	61.898660388484	57.822329249736
1	2966	61.981913927776	0
1	2989	62.86941585626	0
1	2992	62.869471208155	0
1	3001	62.898660388484	28.795132893939
1	3044	63.898660388484	46.876314926131
1	3087	64.898660388484	29.717298009803
1	3093	64.930292449036	0
1	3111	65.173010942708	0
1	3136	65.898660388484	62.777994713396
1	3185	66.898660388484	30.784895129396
1	3237	67.898660388484	31.445230396814
1	3261	68.117491220131	0
1	3292	68.898660388484	50.155983268414
1	3306	69.001276876164	0
1	3313	69.32547598965	0
1	3319	69.467118024445	0
1	3344	69.898660388484	32.062251190277
1	3399	70.728930697932	0
1	3411	70.898660388484	60.543933132551
1	3451	71.898660388484	68.757569124997
1	3481	72.17848547436	0
1	3503	72.898660388484	52.050661967622
1	3521	73.056700553078	0
1	3527	73.402220136787	0
1	3561	73.677748073825	0
1	3570	73.898660388484	62.96940072581
1	3610	74.898660388484	33.589715710995
1	3628	75.215576788302	0
1	3634	75.416018983388	0
1	3659	75.898660388484	64.864839500035
1	3680	76.134265463496	0
1	3705	76.898660388484	65.802724209569
1	3723	77.066877318765	0
1	3726	77.3304544316	0
1	3745	77.898660388484	34.749982925918
1	3779	78.898660388484	35.617799216303
1	3793	79.441343205983	0
1	3819	79.898660388484	73.781437033824
1	3837	80.10718569262	0
1	3843	80.453938996409	0
1	3871	80.898660388484	36.107975760694
1	3911	81.898660388484	37.074188975142
1	3939	82.344040694505	0
1	3955	82.898660388484	38.002513590829
1	3992	83.744716391465	0
1	3999	83.891941428778	0
1	4004	83.898660388484	59.159091844777
1	4030	84.450949098769	0
1	4055	84.898660388484	81.298320987742
1	4075	85.166994416763	0
1	4094	85.898660388484	60.775531630678
1	4111	86.0091307196	0
1	4131	86.898660388484	79.264901059834
1	4162	87.564425079955	0
1	4174	87.898660388484	38.952666752024
1	4191	88.074415913804	0
1	4211	88.59738356746	0
1	4220	88.739509078853	0
1	4232	88.898660388484	74.302510525114
1	4290	89.898660388484	40.729527543923
1	4333	90.898660388484	41.106930199945
1	4373	91.79436885786	0
1	4385	91.898660388484	64.928203979676
1	4440	92.898660388484	65.466473083632
1	4460	93.092814493465	0
1	4492	93.836397685241	0
1	4501	93.898660388484	42.888133396602
1	4559	94.898660388484	43.836450490807
1	4590	95.590112330265	0
1	4596	95.786574216162	0
1	4602	95.858993326277	0
1	4605	95.868728735618	0
1	4614	95.898660388484	43.975526854126
1	4631	96.187312583497	0
1	4654	96.650702611037	0
1	4675	96.898660388484	91.792536729105
1	4712	97.898660388484	45.664559049156
1	4770	98.898660388484	70.249964430195
1	4790	99.24315121982	0
1	4819	99.898660388484	46.527962553899
1	4836	100.056049581006	0
1	4880	100.898660388484	85.430594671488
1	4906	101.104338685962	0
1	4912	101.20113615827	0
1	4941	101.898660388484	95.187297172043
1	4975	102.898660388484	71.986230854334
1	5009	103.615152588778	0
1	5027	103.898660388484	47.190028220045
1	5067	104.786416283725	0
1	5076	104.898660388484	88.453730597417
1	5093	105.060879805729	0
1	5096	105.235874853947	0
1	5099	105.245689290345	0
1	5128	105.898660388484	48.816358425651
1	5168	106.837245413138	0
1	5177	106.898660388484	75.862704206972
1	5183	106.939797306142	0
1	5217	107.898660388484	49.85491885408
1	5260	108.898660388484	77.509684073698
1	5306	109.898660388484	50.492987129774
1	5320	109.97373987854	0
1	5358	110.898660388484	101.84353637974
1	5398	111.898660388484	102.68139989029
1	5447	112.898660388484	51.22314711399
1	5461	112.955519535866	0
1	5470	113.160371803013	0
1	5502	113.898660388484	80.828761869152
1	5508	113.928834380404	0
1	5519	114.032505217046	0
1	5557	114.898660388484	52.185297038501
1	5612	115.898660388484	97.947095264144
1	5632	116.068799404318	0
1	5635	116.101803389374	0
1	5641	116.351754206024	0
1	5658	116.643700277753	0
1	5685	116.898660388484	53.451929365333
1	5702	117.115668365525	0
1	5722	117.584589692798	0
1	5737	117.898660388484	83.649378935507
1	5754	117.955751413599	0
1	5777	118.898660388484	54.897758536285
1	5802	119.600934840673	0
1	5820	119.898660388484	84.953579474607
1	5837	120.05996276816	0
1	5840	120.400199987773	0
1	5847	120.473251644928	0
1	5857	120.749556837856	0
1	5869	120.898660388484	55.758700885612
1	5907	121.835760149013	0
1	5919	121.898660388484	113.91206946982
1	5959	122.898660388484	56.204037947803
1	5992	123.759498719681	0
1	6008	123.898660388484	88.451268676346
1	6025	124.206638622278	0
1	6044	124.657877420769	0
1	6063	124.898660388484	57.56584934221
1	6069	124.922659694107	0
1	6109	125.898660388484	58.097172866233
1	6146	126.898660388484	107.82728089839
1	6176	127.691804176945	0
1	6189	127.898660388484	59.855253221462
1	6206	127.978713272329	0
1	6209	128.090657813473	0
1	6219	128.763040715511	0
1	6232	128.898660388484	60.530037203486
1	6281	129.898660388484	93.807163968023
1	6318	130.898660388484	111.19494430199
1	6332	130.984254898711	0
1	6344	131.302309443902	0
1	6360	131.77118759953	0
1	6376	131.898660388484	61.535998002209
1	6390	132.042743391212	0
1	6399	132.231308115463	0
1	6409	132.582629397005	0
1	6434	132.898660388484	62.379522231825
1	6480	133.898660388484	63.246181608552
1	6513	134.753855278359	0
1	6516	134.778783374087	0
1	6529	134.898660388484	97.727843769367
1	6569	135.898660388484	98.619296670872
1	6586	135.981340718796	0
1	6602	136.58249536518	0
1	6615	136.898660388484	99.522373916295
1	6621	136.928928692675	0
1	6670	137.898660388484	64.425545660137
1	6690	138.043386924391	0
1	6725	138.898660388484	65.408979565715
1	6765	139.898660388484	129.73440321312
1	6782	140.300863715147	0
1	6799	140.822975019558	0
1	6808	140.898660388484	102.62864483799
1	6860	141.898660388484	103.24151474584
1	6906	142.898660388484	66.756421050195
1	6949	143.898660388484	67.343691183468
1	6979	144.542383330457	0
1	6985	144.592298932883	0
1	6995	144.884849534074	0
1	7000	144.898660388484	68.097275361255
1	7024	145.475684754479	0
1	7037	145.898660388484	125.26646580509
1	7043	145.90412578327	0
1	7068	146.618759970648	0
1	7083	146.898660388484	69.489996072636
1	7123	147.759803304901	0
1	7132	147.898660388484	137.28888471807
1	7174	148.887563738474	0
1	7179	148.898660388484	70.812194070581
1	7202	149.219824362053	0
1	7231	149.898660388484	108.97288075315
1	7260	150.458860869431	0
1	7267	150.552616257041	0
1	7292	150.898660388484	129.93405556413
1	7318	151.25119726312	0
1	7353	151.898660388484	70.975553877206
1	7399	152.898660388484	111.5385350972
1	7448	153.898660388484	72.54901806517
1	7485	154.720591101897	0
1	7494	154.898660388484	113.37666501049
1	7531	155.898660388484	134.80599879882
1	7537	155.912906876116	0
1	7559	156.625863355244	0
1	7574	156.898660388484	73.566269160567
1	7591	157.032276221991	0
1	7597	157.134578003001	0
1	7617	157.718038175306	0
1	7629	157.898660388484	74.252271262504
1	7675	158.898660388484	137.45482270944
1	7681	158.902065911653	0
1	7712	159.878357934622	0
1	7721	159.898660388484	75.723804034202
1	7738	160.276306329271	0
1	7755	160.794534177375	0
1	7764	160.898660388484	76.370207458939
1	7804	161.898660388484	77.241627221663
1	7847	162.848586661239	0
1	7856	162.898660388484	119.02648772074
1	7905	163.898660388484	142.32843407301
1	7960	164.898660388484	120.4964848426
1	7997	165.898660388484	121.34569383241
1	8017	166.299596790598	0
1	8023	166.474224587078	0
1	8046	166.898660388484	78.293993954104
1	8086	167.556326471562	0
1	8089	167.596748049215	0
1	8104	167.898660388484	159.60478911767
1	8128	168.166184163086	0
1	8156	168.898660388484	79.900491542981
1	8199	169.898660388484	80.886444951739
1	8242	170.549252436278	0
1	8260	170.898660388484	81.87495170153
1	8274	171.024461875063	0
1	8284	171.216419777014	0
1	8297	171.613898856937	0
1	8306	171.837497915272	0
1	8315	171.898660388484	82.112528017315
1	8346	172.772078331621	0
1	8355	172.898660388484	127.82282380232
1	8373	173.10615341468	0
1	8395	173.898660388484	83.824015306967
1	8413	174.108715823008	0
1	8432	174.675417782858	0
1	8444	174.898660388484	129.35555123591
1	8465	175.087118360731	0
1	8496	175.898660388484	84.161049526293
1	8513	175.985520727168	0
1	8542	176.898660388484	131.30363868373
1	8582	177.709912612636	0
1	8591	177.898660388484	85.684570943695
1	8622	178.724871571006	0
1	8631	178.898660388484	86.54360305928
1	8668	179.898660388484	87.184641740903
1	8705	180.898660388484	158.94573312415
1	8766	181.898660388484	88.880670181674
1	8793	182.464020049046	0
1	8800	182.661751816987	0
1	8812	182.898660388484	89.27160572635
1	8861	183.898660388484	161.41084874839
1	8904	184.898660388484	90.703435242608
1	8932	185.84963598926	0
1	8941	185.898660388484	138.29086594752
1	8965	186.360131151963	0
1	8972	186.597797023069	0
1	8978	186.757741236422	0
1	8990	186.898660388484	91.149689740576
1	9039	187.898660388484	178.11653429191
1	9045	187.91271576999	0
1	9085	188.878151569687	0
1	9094	188.898660388484	92.681583287341
1	9146	189.898660388484	93.538330265959
1	9201	190.898660388484	94.318862105065
1	9219	191.147120656311	0
1	9235	191.760087924993	0
1	9241	191.820762225168	0
1	9250	191.898660388484	142.9815675835
1	9264	191.952973824997	0
1	9274	192.375663613064	0
1	9293	192.898660388484	169.57800523233
1	9333	193.626612273723	0
1	9348	193.898660388484	95.808400503841
1	9385	194.710160462016	0
1	9397	194.898660388484	96.138168627265
1	9418	195.101845001898	0
1	9421	195.218915041226	0
1	9452	195.898660388484	146.56758866083
1	9504	196.898660388484	97.493260136099
1	9524	197.010569377113	0
1	9559	197.898660388484	148.31408295568
1	9573	198.017842065503	0
1	9608	198.898660388484	98.779875853298
1	9645	199.898660388484	99.005033473794
2	3	0.353159139138	1
2	4	0.353159139138	0
2	48	1.898660388484	1
2	49	1.898660388484	0
2	67	2.576683561174	1
2	87	2.898660388484	0
2	89	2.898660388484	1
2	137	3.898660388484	0
2	139	3.898660388484	1
2	174	4.898660388484	0
2	176	4.898660388484	1
2	200	5.174937647023	2
2	214	5.898660388484	1
2	216	5.898660388484	2
2	256	6.788939721916	3
2	266	6.898660388484	2
2	268	6.898660388484	3
2	299	7.661260916958	4
2	315	7.898660388484	3
2	317	7.898660388484	4
2	347	8.399088208714	5
2	373	8.898660388484	4
2	375	8.898660388484	5
2	389	9.008170631897	6
2	425	9.898660388484	5
2	427	9.898660388484	6
2	441	9.969551570963	7
2	474	10.898660388484	6
2	476	10.898660388484	7
2	503	11.114690525663	8
2	520	11.898660388484	7
2	522	11.898660388484	8
2	544	12.213602993214	9
2	556	12.449809699297	10
2	569	12.82877166358	11
2	576	12.898660388484	10
2	578	12.898660388484	11
2	608	13.221884220884	12
2	634	13.898660388484	11
2	636	13.898660388484	12
2	680	14.898660388484	11
2	682	14.898660388484	12
2	729	15.898660388484	11
2	731	15.898660388484	12
2	781	16.898660388484	11
2	783	16.898660388484	12
2	820	17.67638106706	13
2	827	17.898660388484	12
2	829	17.898660388484	13
2	870	18.898660388484	12
2	872	18.898660388484	13
2	897	19.496199986344	14
2	916	19.898660388484	13
2	918	19.898660388484	14
2	936	20.208783579677	15
2	962	20.898660388484	14
2	964	20.898660388484	15
2	1001	21.553028851829	16
2	1014	21.898660388484	15
2	1016	21.898660388484	16
2	1056	22.719902378378	17
2	1063	22.898660388484	16
2	1065	22.898660388484	17
2	1093	23.555999910348	18
2	1109	23.898660388484	17
2	1111	23.898660388484	18
2	1132	24.267247847565	19
2	1155	24.898660388484	18
2	1157	24.898660388484	19
2	1184	25.125143488639	20
2	1187	25.2664742022	21
2	1201	25.898660388484	20
2	1203	25.898660388484	21
2	1227	26.308254856379	22
2	1243	26.615772580141	23
2	1259	26.898660388484	22
2	1261	26.898660388484	23
2	1294	27.420569979942	24
2	1307	27.735291640797	25
2	1317	27.898660388484	24
2	1319	27.898660388484	25
2	1336	28.075638379032	26
2	1346	28.36165935154	27
2	1369	28.898660388484	26
2	1371	28.898660388484	27
2	1392	29.220052319369	28
2	1395	29.47247231226	29
2	1415	29.898660388484	28
2	1417	29.898660388484	29
2	1455	30.898660388484	28
2	1457	30.898660388484	29
2	1491	31.693979210734	30
2	1498	31.898660388484	29
2	1500	31.898660388484	30
2	1524	32.224701707351	31
2	1547	32.898660388484	30
2	1549	32.898660388484	31
2	1587	33.898660388484	30
2	1589	33.898660388484	31
2	1613	34.354201103419	32
2	1633	34.898660388484	31
2	1635	34.898660388484	32
2	1659	35.116068874715	33
2	1682	35.898660388484	32
2	1684	35.898660388484	33
2	1701	36.080522440209	34
2	1740	36.898660388484	33
2	1742	36.898660388484	34
2	1775	37.339565957473	35
2	1791	37.776593971247	36
2	1794	37.810797389605	37
2	1804	37.898660388484	36
2	1806	37.898660388484	37
2	1846	38.869806774986	38
2	1856	38.898660388484	37
2	1858	38.898660388484	38
2	1888	39.327979658944	39
2	1905	39.898660388484	38
2	1907	39.898660388484	39
2	1945	40.898660388484	38
2	1947	40.898660388484	39
2	1967	40.968877236871	40
2	1990	41.602339854594	41
2	1997	41.898660388484	40
2	1999	41.898660388484	41
2	2034	42.898660388484	40
2	2036	42.898660388484	41
2	2076	43.628248671697	42
2	2086	43.898660388484	41
2	2088	43.898660388484	42
2	2132	44.898660388484	41
2	2134	44.898660388484	42
2	2161	45.274967773024	43
2	2180	45.819824901169	44
2	2187	45.898660388484	43
2	2189	45.898660388484	44
2	2233	46.898660388484	43
2	2235	46.898660388484	44
2	2267	47.898660388484	43
2	2269	47.898660388484	44
2	2310	48.898660388484	43
2	2312	48.898660388484	44
2	2365	49.529785493073	45
2	2381	49.898660388484	44
2	2383	49.898660388484	45
2	2424	50.898660388484	44
2	2426	50.898660388484	45
2	2473	51.898660388484	44
2	2475	51.898660388484	45
2	2505	52.41432978148	46
2	2519	52.898660388484	45
2	2521	52.898660388484	46
2	2562	53.898660388484	45
2	2564	53.898660388484	46
2	2582	54.41150174897	47
2	2617	54.898660388484	46
2	2619	54.898660388484	47
2	2625	54.919366871657	48
2	2647	55.521045858181	49
2	2663	55.898660388484	48
2	2665	55.898660388484	49
2	2718	56.898660388484	48
2	2720	56.898660388484	49
2	2764	57.898660388484	48
2	2766	57.898660388484	49
2	2807	58.898660388484	48
2	2809	58.898660388484	49
2	2823	59.035524538718	50
2	2856	59.898660388484	49
2	2858	59.898660388484	50
2	2872	60.165880084629	51
2	2878	60.410371106672	52
2	2908	60.898660388484	51
2	2910	60.898660388484	52
2	2937	61.498275540286	53
2	2951	61.898660388484	52
2	2953	61.898660388484	53
2	2967	61.981913927776	54
2	2990	62.86941585626	55
2	2993	62.869471208155	56
2	3000	62.898660388484	55
2	3002	62.898660388484	56
2	3043	63.898660388484	55
2	3045	63.898660388484	56
2	3086	64.898660388484	55
2	3088	64.898660388484	56
2	3094	64.930292449036	57
2	3112	65.173010942708	58
2	3135	65.898660388484	57
2	3137	65.898660388484	58
2	3184	66.898660388484	57
2	3186	66.898660388484	58
2	3236	67.898660388484	57
2	3238	67.898660388484	58
2	3262	68.117491220131	59
2	3291	68.898660388484	58
2	3293	68.898660388484	59
2	3307	69.001276876164	60
2	3314	69.32547598965	61
2	3320	69.467118024445	62
2	3343	69.898660388484	61
2	3345	69.898660388484	62
2	3400	70.728930697932	63
2	3410	70.898660388484	62
2	3412	70.898660388484	63
2	3450	71.898660388484	62
2	3452	71.898660388484	63
2	3482	72.17848547436	64
2	3502	72.898660388484	63
2	3504	72.898660388484	64
2	3522	73.056700553078	65
2	3528	73.402220136787	66
2	3562	73.677748073825	67
2	3569	73.898660388484	66
2	3571	73.898660388484	67
2	3609	74.898660388484	66
2	3611	74.898660388484	67
2	3629	75.215576788302	68
2	3635	75.416018983388	69
2	3658	75.898660388484	68
2	3660	75.898660388484	69
2	3681	76.134265463496	70
2	3704	76.898660388484	69
2	3706	76.898660388484	70
2	3724	77.066877318765	71
2	3727	77.3304544316	72
2	3744	77.898660388484	71
2	3746	77.898660388484	72
2	3778	78.898660388484	71
2	3780	78.898660388484	72
2	3794	79.441343205983	73
2	3818	79.898660388484	72
2	3820	79.898660388484	73
2	3838	80.10718569262	74
2	3844	80.453938996409	75
2	3870	80.898660388484	74
2	3872	80.898660388484	75
2	3910	81.898660388484	74
2	3912	81.898660388484	75
2	3940	82.344040694505	76
2	3954	82.898660388484	75
2	3956	82.898660388484	76
2	3993	83.744716391465	77
2	4000	83.891941428778	78
2	4003	83.898660388484	77
2	4005	83.898660388484	78
2	4031	84.450949098769	79
2	4054	84.898660388484	78
2	4056	84.898660388484	79
2	4076	85.166994416763	80
2	4093	85.898660388484	79
2	4095	85.898660388484	80
2	4112	86.0091307196	81
2	4130	86.898660388484	80
2	4132	86.898660388484	81
2	4163	87.564425079955	82
2	4173	87.898660388484	81
2	4175	87.898660388484	82
2	4192	88.074415913804	83
2	4212	88.59738356746	84
2	4221	88.739509078853	85
2	4231	88.898660388484	84
2	4233	88.898660388484	85
2	4289	89.898660388484	84
2	4291	89.898660388484	85
2	4332	90.898660388484	84
2	4334	90.898660388484	85
2	4374	91.79436885786	86
2	4384	91.898660388484	85
2	4386	91.898660388484	86
2	4439	92.898660388484	85
2	4441	92.898660388484	86
2	4461	93.092814493465	87
2	4493	93.836397685241	88
2	4500	93.898660388484	87
2	4502	93.898660388484	88
2	4558	94.898660388484	87
2	4560	94.898660388484	88
2	4591	95.590112330265	89
2	4597	95.786574216162	90
2	4603	95.858993326277	91
2	4606	95.868728735618	92
2	4613	95.898660388484	91
2	4615	95.898660388484	92
2	4632	96.187312583497	93
2	4655	96.650702611037	94
2	4674	96.898660388484	93
2	4676	96.898660388484	94
2	4711	97.898660388484	93
2	4713	97.898660388484	94
2	4769	98.898660388484	93
2	4771	98.898660388484	94
2	4791	99.24315121982	95
2	4818	99.898660388484	94
2	4820	99.898660388484	95
2	4837	100.056049581006	96
2	4879	100.898660388484	95
2	4881	100.898660388484	96
2	4907	101.104338685962	97
2	4913	101.20113615827	98
2	4940	101.898660388484	97
2	4942	101.898660388484	98
2	4974	102.898660388484	97
2	4976	102.898660388484	98
2	5010	103.615152588778	99
2	5026	103.898660388484	98
2	5028	103.898660388484	99
2	5068	104.786416283725	100
2	5075	104.898660388484	99
2	5077	104.898660388484	100
2	5094	105.060879805729	101
2	5097	105.235874853947	102
2	5100	105.245689290345	103
2	5127	105.898660388484	102
2	5129	105.898660388484	103
2	5169	106.837245413138	104
2	5176	106.898660388484	103
2	5178	106.898660388484	104
2	5184	106.939797306142	105
2	5216	107.898660388484	104
2	5218	107.898660388484	105
2	5259	108.898660388484	104
2	5261	108.898660388484	105
2	5305	109.898660388484	104
2	5307	109.898660388484	105
2	5321	109.97373987854	106
2	5357	110.898660388484	105
2	5359	110.898660388484	106
2	5397	111.898660388484	105
2	5399	111.898660388484	106
2	5446	112.898660388484	105
2	5448	112.898660388484	106
2	5462	112.955519535866	107
2	5471	113.160371803013	108
2	5501	113.898660388484	107
2	5503	113.898660388484	108
2	5509	113.928834380404	109
2	5520	114.032505217046	110
2	5556	114.898660388484	109
2	5558	114.898660388484	110
2	5611	115.898660388484	109
2	5613	115.898660388484	110
2	5633	116.068799404318	111
2	5636	116.101803389374	112
2	5642	116.351754206024	113
2	5659	116.643700277753	114
2	5684	116.898660388484	113
2	5686	116.898660388484	114
2	5703	117.115668365525	115
2	5723	117.584589692798	116
2	5736	117.898660388484	115
2	5738	117.898660388484	116
2	5755	117.955751413599	117
2	5776	118.898660388484	116
2	5778	118.898660388484	117
2	5803	119.600934840673	118
2	5819	119.898660388484	117
2	5821	119.898660388484	118
2	5838	120.05996276816	119
2	5841	120.400199987773	120
2	5848	120.473251644928	121
2	5858	120.749556837856	122
2	5868	120.898660388484	121
2	5870	120.898660388484	122
2	5908	121.835760149013	123
2	5918	121.898660388484	122
2	5920	121.898660388484	123
2	5958	122.898660388484	122
2	5960	122.898660388484	123
2	5993	123.759498719681	124
2	6007	123.898660388484	123
2	6009	123.898660388484	124
2	6026	124.206638622278	125
2	6045	124.657877420769	126
2	6062	124.898660388484	125
2	6064	124.898660388484	126
2	6070	124.922659694107	127
2	6108	125.898660388484	126
2	6110	125.898660388484	127
2	6145	126.898660388484	126
2	6147	126.898660388484	127
2	6177	127.691804176945	128
2	6188	127.898660388484	127
2	6190	127.898660388484	128
2	6207	127.978713272329	129
2	6210	128.090657813473	130
2	6220	128.763040715511	131
2	6231	128.898660388484	130
2	6233	128.898660388484	131
2	6280	129.898660388484	130
2	6282	129.898660388484	131
2	6317	130.898660388484	130
2	6319	130.898660388484	131
2	6333	130.984254898711	132
2	6345	131.302309443902	133
2	6361	131.77118759953	134
2	6375	131.898660388484	133
2	6377	131.898660388484	134
2	6391	132.042743391212	135
2	6400	132.231308115463	136
2	6410	132.582629397005	137
2	6433	132.898660388484	136
2	6435	132.898660388484	137
2	6479	133.898660388484	136
2	6481	133.898660388484	137
2	6514	134.753855278359	138
2	6517	134.778783374087	139
2	6528	134.898660388484	138
2	6530	134.898660388484	139
2	6568	135.898660388484	138
2	6570	135.898660388484	139
2	6587	135.981340718796	140
2	6603	136.58249536518	141
2	6614	136.898660388484	140
2	6616	136.898660388484	141
2	6622	136.928928692675	142
2	6669	137.898660388484	141
2	6671	137.898660388484	142
2	6691	138.043386924391	143
2	6724	138.898660388484	142
2	6726	138.898660388484	143
2	6764	139.898660388484	142
2	6766	139.898660388484	143
2	6783	140.300863715147	144
2	6800	140.822975019558	145
2	6807	140.898660388484	144
2	6809	140.898660388484	145
2	6859	141.898660388484	144
2	6861	141.898660388484	145
2	6905	142.898660388484	144
2	6907	142.898660388484	145
2	6948	143.898660388484	144
2	6950	143.898660388484	145
2	6980	144.542383330457	146
2	6986	144.592298932883	147
2	6996	144.884849534074	148
2	6999	144.898660388484	147
2	7001	144.898660388484	148
2	7025	145.475684754479	149
2	7036	145.898660388484	148
2	7038	145.898660388484	149
2	7044	145.90412578327	150
2	7069	146.618759970648	151
2	7082	146.898660388484	150
2	7084	146.898660388484	151
2	7124	147.759803304901	152
2	7131	147.898660388484	151
2	7133	147.898660388484	152
2	7175	148.887563738474	153
2	7178	148.898660388484	152
2	7180	148.898660388484	153
2	7203	149.219824362053	154
2	7230	149.898660388484	153
2	7232	149.898660388484	154
2	7261	150.458860869431	155
2	7268	150.552616257041	156
2	7291	150.898660388484	155
2	7293	150.898660388484	156
2	7319	151.25119726312	157
2	7352	151.898660388484	156
2	7354	151.898660388484	157
2	7398	152.898660388484	156
2	7400	152.898660388484	157
2	7447	153.898660388484	156
2	7449	153.898660388484	157
2	7486	154.720591101897	158
2	7493	154.898660388484	157
2	7495	154.898660388484	158
2	7530	155.898660388484	157
2	7532	155.898660388484	158
2	7538	155.912906876116	159
2	7560	156.625863355244	160
2	7573	156.898660388484	159
2	7575	156.898660388484	160
2	7592	157.032276221991	161
2	7598	157.134578003001	162
2	7618	157.718038175306	163
2	7628	157.898660388484	162
2	7630	157.898660388484	163
2	7674	158.898660388484	162
2	7676	158.898660388484	163
2	7682	158.902065911653	164
2	7713	159.878357934622	165
2	7720	159.898660388484	164
2	7722	159.898660388484	165
2	7739	160.276306329271	166
2	7756	160.794534177375	167
2	7763	160.898660388484	166
2	7765	160.898660388484	167
2	7803	161.898660388484	166
2	7805	161.898660388484	167
2	7848	162.848586661239	168
2	7855	162.898660388484	167
2	7857	162.898660388484	168
2	7904	163.898660388484	167
2	7906	163.898660388484	168
2	7959	164.898660388484	167
2	7961	164.898660388484	168
2	7996	165.898660388484	167
2	7998	165.898660388484	168
2	8018	166.299596790598	169
2	8024	166.474224587078	170
2	8045	166.898660388484	169
2	8047	166.898660388484	170
2	8087	167.556326471562	171
2	8090	167.596748049215	172
2	8103	167.898660388484	171
2	8105	167.898660388484	172
2	8129	168.166184163086	173
2	8155	168.898660388484	172
2	8157	168.898660388484	173
2	8198	169.898660388484	172
2	8200	169.898660388484	173
2	8243	170.549252436278	174
2	8259	170.898660388484	173
2	8261	170.898660388484	174
2	8275	171.024461875063	175
2	8285	171.216419777014	176
2	8298	171.613898856937	177
2	8307	171.837497915272	178
2	8314	171.898660388484	177
2	8316	171.898660388484	178
2	8347	172.772078331621	179
2	8354	172.898660388484	178
2	8356	172.898660388484	179
2	8374	173.10615341468	180
2	8394	173.898660388484	179
2	8396	173.898660388484	180
2	8414	174.108715823008	181
2	8433	174.675417782858	182
2	8443	174.898660388484	181
2	8445	174.898660388484	182
2	8466	175.087118360731	183
2	8495	175.898660388484	182
2	8497	175.898660388484	183
2	8514	175.985520727168	184
2	8541	176.898660388484	183
2	8543	176.898660388484	184
2	8583	177.709912612636	185
2	8590	177.898660388484	184
2	8592	177.898660388484	185
2	8623	178.724871571006	186
2	8630	178.898660388484	185
2	8632	178.898660388484	186
2	8667	179.898660388484	185
2	8669	179.898660388484	186
2	8704	180.898660388484	185
2	8706	180.898660388484	186
2	8765	181.898660388484	185
2	8767	181.898660388484	186
2	8794	182.464020049046	187
2	8801	182.661751816987	188
2	8811	182.898660388484	187
2	8813	182.898660388484	188
2	8860	183.898660388484	187
2	8862	183.898660388484	188
2	8903	184.898660388484	187
2	8905	184.898660388484	188
2	8933	185.84963598926	189
2	8940	185.898660388484	188
2	8942	185.898660388484	189
2	8966	186.360131151963	190
2	8973	186.597797023069	191
2	8979	186.757741236422	192
2	8989	186.898660388484	191
2	8991	186.898660388484	192
2	9038	187.898660388484	191
2	9040	187.898660388484	192
2	9046	187.91271576999	193
2	9086	188.878151569687	194
2	9093	188.898660388484	193
2	9095	188.898660388484	194
2	9145	189.898660388484	193
2	9147	189.898660388484	194
2	9200	190.898660388484	193
2	9202	190.898660388484	194
2	9220	191.147120656311	195
2	9236	191.760087924993	196
2	9242	191.820762225168	197
2	9249	191.898660388484	196
2	9251	191.898660388484	197
2	9265	191.952973824997	198
2	9275	192.375663613064	199
2	9292	192.898660388484	198
2	9294	192.898660388484	199
2	9334	193.626612273723	200
2	9347	193.898660388484	199
2	9349	193.898660388484	200
2	9386	194.710160462016	201
2	9396	194.898660388484	200
2	9398	194.898660388484	201
2	9419	195.101845001898	202
2	9422	195.218915041226	203
2	9451	195.898660388484	202
2	9453	195.898660388484	203
2	9503	196.898660388484	202
2	9505	196.898660388484	203
2	9525	197.010569377113	204
2	9558	197.898660388484	203
2	9560	197.898660388484	204
2	9574	198.017842065503	205
2	9607	198.898660388484	204
2	9609	198.898660388484	205
2	9644	199.898660388484	204
2	9646	199.898660388484	205
3	6	0.485128163722	0
3	10	0.543512832815	0
3	25	1.353259139138	2
3	91	2.898760388484	3
3	129	3.858425112743	0
3	141	3.898760388484	2
3	152	4.009655966408	0
3	178	4.898760388484	3
3	218	5.898760388484	3
3	233	6.04997022435	0
3	252	6.78493464554	0
3	270	6.898760388484	3
3	304	7.806366519889	0
3	319	7.898760388484	2
3	343	8.341932240117	0
3	377	8.898760388484	4
3	414	9.677222424741	0
3	429	9.898760388484	2
3	478	10.898760388484	5
3	524	11.898760388484	2
3	562	12.555137446019	0
3	580	12.898760388484	3
3	614	13.49119900579	0
3	638	13.898760388484	2
3	684	14.898760388484	4
3	733	15.898760388484	2
3	770	16.684145647844	0
3	785	16.898760388484	5
3	831	17.898760388484	2
3	874	18.898760388484	5
3	902	19.671335539696	0
3	908	19.72866246612	0
3	920	19.898760388484	2
3	938	20.328609352761	0
3	941	20.348799480907	0
3	944	20.388775779965	0
3	966	20.898760388484	6
3	980	20.971654168832	0
3	990	21.417073630752	0
3	1018	21.898760388484	2
3	1032	22.072719915116	0
3	1067	22.898760388484	2
3	1113	23.898760388484	2
3	1144	24.576631698201	0
3	1159	24.898760388484	3
3	1162	24.90197211373	0
3	1165	24.911372864394	0
3	1205	25.898760388484	2
3	1216	26.012218774485	0
3	1263	26.898760388484	3
3	1309	27.853501245972	0
3	1321	27.898760388484	3
3	1373	28.898760388484	3
3	1419	29.898760388484	3
3	1459	30.898760388484	2
3	1480	31.128644423687	0
3	1502	31.898760388484	4
3	1536	32.585462982251	0
3	1551	32.898760388484	3
3	1562	32.961201824658	0
3	1591	33.898760388484	2
3	1637	34.898760388484	3
3	1686	35.898760388484	2
3	1719	36.325572277709	0
3	1744	36.898760388484	4
3	1771	37.28794733348	0
3	1808	37.898760388484	2
3	1823	38.131835806071	0
3	1860	38.898760388484	3
3	1884	39.187685414731	0
3	1894	39.489251327954	0
3	1909	39.898760388484	2
3	1924	40.2593281875	0
3	1937	40.853401685824	0
3	1949	40.898760388484	3
3	2001	41.898760388484	2
3	2038	42.898760388484	5
3	2068	43.372683815907	0
3	2090	43.898760388484	2
3	2136	44.898760388484	3
3	2163	45.374670311433	0
3	2191	45.898760388484	2
3	2225	46.655004515245	0
3	2237	46.898760388484	2
3	2248	47.101257335764	0
3	2271	47.898760388484	4
3	2314	48.898760388484	2
3	2385	49.898760388484	2
3	2396	49.985869087866	0
3	2420	50.893833115191	0
3	2428	50.898760388484	3
3	2459	51.587032884729	0
3	2462	51.858700955071	0
3	2477	51.898760388484	2
3	2523	52.898760388484	2
3	2566	53.898760388484	4
3	2621	54.898760388484	2
3	2667	55.898760388484	2
3	2704	56.737833843065	0
3	2722	56.898760388484	3
3	2768	57.898760388484	2
3	2799	58.866503937596	0
3	2811	58.898760388484	2
3	2838	59.471085155931	0
3	2860	59.898760388484	4
3	2891	60.725288426022	0
3	2900	60.872884458913	0
3	2912	60.898760388484	3
3	2955	61.898760388484	2
3	2969	62.293267914498	0
3	2980	62.685840942686	0
3	3004	62.898760388484	3
3	3047	63.898760388484	2
3	3071	64.46398427952	0
3	3090	64.898760388484	7
3	3127	65.627097562945	0
3	3139	65.898760388484	4
3	3142	65.920049021432	0
3	3163	66.296478372953	0
3	3188	66.898760388484	2
3	3199	67.026706038192	0
3	3212	67.259231056577	0
3	3240	67.898760388484	6
3	3277	68.570203424737	0
3	3280	68.69523601466	0
3	3295	68.898760388484	2
3	3335	69.818696514208	0
3	3347	69.898760388484	4
3	3390	70.652074754854	0
3	3414	70.898760388484	2
3	3454	71.898760388484	5
3	3457	71.932499108833	0
3	3468	72.019607692091	0
3	3506	72.898760388484	2
3	3530	73.402924158242	0
3	3573	73.898760388484	2
3	3595	74.533842637431	0
3	3601	74.864752518607	0
3	3613	74.898760388484	2
3	3647	75.747633063564	0
3	3662	75.898760388484	3
3	3708	76.898760388484	2
3	3748	77.898760388484	4
3	3782	78.898760388484	2
3	3807	79.541656846652	0
3	3822	79.898760388484	5
3	3859	80.774537309683	0
3	3862	80.787862554511	0
3	3874	80.898760388484	4
3	3914	81.898760388484	2
3	3958	82.898760388484	2
3	4007	83.898760388484	7
3	4027	84.447519885276	0
3	4058	84.898760388484	3
3	4072	84.960234527906	0
3	4097	85.898760388484	2
3	4134	86.898760388484	4
3	4137	86.942124869015	0
3	4177	87.898760388484	4
3	4197	88.429554623355	0
3	4217	88.693825087491	0
3	4223	88.748732460042	0
3	4235	88.898760388484	2
3	4293	89.898760388484	2
3	4307	90.041880318838	0
3	4336	90.898760388484	3
3	4350	91.156767740745	0
3	4388	91.898760388484	5
3	4428	92.551636832008	0
3	4443	92.898760388484	3
3	4469	93.220939703994	0
3	4504	93.898760388484	4
3	4536	94.410435955329	0
3	4547	94.641856927284	0
3	4562	94.898760388484	2
3	4617	95.898760388484	3
3	4628	96.150072158911	0
3	4678	96.898760388484	6
3	4715	97.898760388484	3
3	4744	98.376156148353	0
3	4755	98.567452194251	0
3	4773	98.898760388484	2
3	4804	99.604697288354	0
3	4810	99.778892448728	0
3	4822	99.898760388484	4
3	4825	99.934178034233	0
3	4883	100.898760388484	3
3	4900	101.077973413352	0
3	4944	101.898760388484	2
3	4947	101.942911522781	0
3	4978	102.898760388484	5
3	4989	103.230873497857	0
3	5015	103.740075984723	0
3	5030	103.898760388484	2
3	5079	104.898760388484	2
3	5082	104.942789768552	0
3	5131	105.898760388484	3
3	5151	106.399349980128	0
3	5180	106.898760388484	4
3	5220	107.898760388484	4
3	5240	108.349326891975	0
3	5263	108.898760388484	3
3	5309	109.898760388484	2
3	5361	110.898760388484	7
3	5401	111.898760388484	2
3	5450	112.898760388484	2
3	5476	113.23282588232	0
3	5505	113.898760388484	3
3	5522	114.373104759239	0
3	5529	114.469646038267	0
3	5560	114.898760388484	2
3	5577	115.075079819907	0
3	5583	115.108713740827	0
3	5586	115.124442864602	0
3	5603	115.844087762291	0
3	5615	115.898760388484	6
3	5621	115.914589710652	0
3	5638	116.204863125775	0
3	5688	116.898760388484	2
3	5699	117.072724995663	0
3	5740	117.898760388484	2
3	5780	118.898760388484	2
3	5823	119.898760388484	3
3	5854	120.732287114125	0
3	5872	120.898760388484	4
3	5914	121.882949707054	0
3	5922	121.898760388484	3
3	5936	122.434751828692	0
3	5962	122.898760388484	2
3	5982	123.243731523825	0
3	5995	123.779630319165	0
3	6011	123.898760388484	2
3	6066	124.898760388484	7
3	6112	125.898760388484	3
3	6149	126.898760388484	3
3	6160	127.2502753997	0
3	6170	127.60204278513	0
3	6192	127.898760388484	2
3	6235	128.898760388484	4
3	6284	129.898760388484	2
3	6321	130.898760388484	2
3	6379	131.898760388484	2
3	6402	132.431763033099	0
3	6415	132.794841873283	0
3	6437	132.898760388484	3
3	6454	133.228506728657	0
3	6483	133.898760388484	2
3	6532	134.898760388484	5
3	6572	135.898760388484	7
3	6589	136.085932076473	0
3	6618	136.898760388484	2
3	6641	137.320611952526	0
3	6673	137.898760388484	4
3	6709	138.511593405923	0
3	6728	138.898760388484	2
3	6768	139.898760388484	2
3	6811	140.898760388484	2
3	6863	141.898760388484	5
3	6884	142.402503496331	0
3	6897	142.727920213493	0
3	6909	142.898760388484	3
3	6933	143.472298474891	0
3	6940	143.878024818758	0
3	6952	143.898760388484	2
3	6969	144.277820091235	0
3	7003	144.898760388484	2
3	7040	145.898760388484	5
3	7061	146.260632671509	0
3	7074	146.749741082129	0
3	7086	146.898760388484	2
3	7120	147.723619673609	0
3	7135	147.898760388484	5
3	7161	148.742572854685	0
3	7182	148.898760388484	2
3	7196	149.060965870741	0
3	7199	149.091667643752	0
3	7234	149.898760388484	2
3	7251	150.099681184236	0
3	7295	150.898760388484	3
3	7298	150.916273873084	0
3	7356	151.898760388484	3
3	7402	152.898760388484	2
3	7419	153.282564136931	0
3	7451	153.898760388484	6
3	7468	154.324408601752	0
3	7497	154.898760388484	2
3	7534	155.898760388484	2
3	7562	156.787052871158	0
3	7565	156.816584682322	0
3	7577	156.898760388484	3
3	7632	157.898760388484	3
3	7652	158.38124123302	0
3	7678	158.898760388484	2
3	7724	159.898760388484	3
3	7735	160.134689351296	0
3	7741	160.277938055081	0
3	7767	160.898760388484	2
3	7807	161.898760388484	2
3	7859	162.898760388484	4
3	7908	163.898760388484	2
3	7925	164.219396739707	0
3	7963	164.898760388484	7
3	8000	165.898760388484	2
3	8049	166.898760388484	4
3	8073	167.258928329841	0
3	8107	167.898760388484	2
3	8159	168.898760388484	6
3	8187	169.677979724	0
3	8202	169.898760388484	2
3	8232	170.418231915415	0
3	8263	170.898760388484	3
3	8277	171.054335369781	0
3	8318	171.898760388484	2
3	8333	172.144580956242	0
3	8340	172.514560135993	0
3	8358	172.898760388484	2
3	8379	173.163970862787	0
3	8398	173.898760388484	2
3	8447	174.898760388484	5
3	8471	175.377198094322	0
3	8487	175.814937550435	0
3	8499	175.898760388484	3
3	8533	176.871378544616	0
3	8545	176.898760388484	3
3	8548	176.909667342388	0
3	8594	177.898760388484	2
3	8634	178.898760388484	4
3	8671	179.898760388484	4
3	8708	180.898760388484	2
3	8769	181.898760388484	2
3	8815	182.898760388484	3
3	8864	183.898760388484	3
3	8882	184.143135795187	0
3	8907	184.898760388484	2
3	8944	185.898760388484	2
3	8955	186.028000409392	0
3	8993	186.898760388484	2
3	9021	187.546369557789	0
3	9024	187.555340945123	0
3	9027	187.657659424696	0
3	9030	187.752226161197	0
3	9042	187.898760388484	2
3	9066	188.440937005153	0
3	9079	188.717424689254	0
3	9097	188.898760388484	3
3	9149	189.898760388484	2
3	9204	190.898760388484	2
3	9253	191.898760388484	7
3	9296	192.898760388484	3
3	9299	192.912693309376	0
3	9317	193.392985123184	0
3	9320	193.415203775203	0
3	9351	193.898760388484	4
3	9368	193.98041541005	0
3	9400	194.898760388484	2
3	9411	195.040060353259	0
3	9427	195.420179384597	0
3	9455	195.898760388484	3
3	9507	196.898760388484	2
3	9510	196.915410502726	0
3	9562	197.898760388484	5
3	9589	198.130166211294	0
3	9611	198.898760388484	2
3	9648	199.898760388484	2
4	6	0.485128163722	0
4	10	0.543512832815	0
4	25	1.353259139138	1.0001
4	91	2.898760388484	2.0002
4	129	3.858425112743	0
4	141	3.898760388484	1.32207682731
4	152	4.009655966408	0
4	178	4.898760388484	3.681843859158
4	218	5.898760388484	4.032397510907
4	233	6.04997022435	0
4	252	6.78493464554	0
4	270	6.898760388484	4.279723397594
4	304	7.806366519889	0
4	319	7.898760388484	2.723822741461
4	343	8.341932240117	0
4	377	8.898760388484	7.039156176409
4	414	9.677222424741	0
4	429	9.898760388484	3.109820666568
4	478	10.898760388484	8.9472150526
4	524	11.898760388484	4.237499471526
4	562	12.555137446019	0
4	580	12.898760388484	8.471354133319
4	614	13.49119900579	0
4	638	13.898760388484	5.49967217977
4	684	14.898760388484	11.366944976084
4	733	15.898760388484	6.890589756587
4	770	16.684145647844	0
4	785	16.898760388484	14.1077821997
4	831	17.898760388484	7.929208817521
4	874	18.898760388484	16.034096844235
4	902	19.671335539696	0
4	908	19.72866246612	0
4	920	19.898760388484	8.784069862821
4	938	20.328609352761	0
4	941	20.348799480907	0
4	944	20.388775779965	0
4	966	20.898760388484	19.019796334281
4	980	20.971654168832	0
4	990	21.417073630752	0
4	1018	21.898760388484	9.68515739527
4	1032	22.072719915116	0
4	1067	22.898760388484	10.448950689187
4	1113	23.898760388484	11.069988724904
4	1144	24.576631698201	0
4	1159	24.898760388484	16.626132264177
4	1162	24.90197211373	0
4	1165	24.911372864394	0
4	1205	25.898760388484	12.6768761676
4	1216	26.012218774485	0
4	1263	26.898760388484	18.419928982147
4	1309	27.853501245972	0
4	1321	27.898760388484	19.17588049141
4	1373	28.898760388484	20.030602464118
4	1419	29.898760388484	21.011633894917
4	1459	30.898760388484	13.222379321424
4	1480	31.128644423687	0
4	1502	31.898760388484	25.216775047408
4	1536	32.585462982251	0
4	1551	32.898760388484	23.61986308424
4	1562	32.961201824658	0
4	1591	33.898760388484	14.40256040214
4	1637	34.898760388484	25.368421152165
4	1686	35.898760388484	15.689976808807
4	1719	36.325572277709	0
4	1744	36.898760388484	30.09090063797
4	1771	37.28794733348	0
4	1808	37.898760388484	16.345731536655
4	1823	38.131835806071	0
4	1860	38.898760388484	28.879864102857
4	1884	39.187685414731	0
4	1894	39.489251327954	0
4	1909	39.898760388484	17.178858010106
4	1924	40.2593281875	0
4	1937	40.853401685824	0
4	1949	40.898760388484	30.282118026039
4	2001	41.898760388484	18.342760478136
4	2038	42.898760388484	39.622518847992
4	2068	43.372683815907	0
4	2090	43.898760388484	19.631512540919
4	2136	44.898760388484	33.086010226582
4	2163	45.374670311433	0
4	2191	45.898760388484	20.773616899845
4	2225	46.655004515245	0
4	2237	46.898760388484	21.632286186284
4	2248	47.101257335764	0
4	2271	47.898760388484	40.93617095747
4	2314	48.898760388484	22.590505532105
4	2385	49.898760388484	23.282987808343
4	2396	49.985869087866	0
4	2420	50.893833115191	0
4	2428	50.898760388484	37.975412780895
4	2459	51.587032884729	0
4	2462	51.858700955071	0
4	2477	51.898760388484	24.478190408542
4	2523	52.898760388484	25.163468747687
4	2566	53.898760388484	46.165336299003
4	2621	54.898760388484	26.823122009452
4	2667	55.898760388484	27.537101036944
4	2704	56.737833843065	0
4	2722	56.898760388484	43.130984987367
4	2768	57.898760388484	28.678708069115
4	2799	58.866503937596	0
4	2811	58.898760388484	29.426288076224
4	2838	59.471085155931	0
4	2860	59.898760388484	52.05339013837
4	2891	60.725288426022	0
4	2900	60.872884458913	0
4	2912	60.898760388484	46.896683468591
4	2955	61.898760388484	30.20478117775
4	2969	62.293267914498	0
4	2980	62.685840942686	0
4	3004	62.898760388484	48.720769923165
4	3047	63.898760388484	31.674058681133
4	3071	64.46398427952	0
4	3090	64.898760388484	63.921753962091
4	3127	65.627097562945	0
4	3139	65.898760388484	57.411695436339
4	3142	65.920049021432	0
4	3163	66.296478372953	0
4	3188	66.898760388484	32.544559285065
4	3199	67.026706038192	0
4	3212	67.259231056577	0
4	3240	67.898760388484	65.36591376706
4	3277	68.570203424737	0
4	3280	68.69523601466	0
4	3295	68.898760388484	33.782691513769
4	3335	69.818696514208	0
4	3347	69.898760388484	60.571360730727
4	3390	70.652074754854	0
4	3414	70.898760388484	34.818237948275
4	3454	71.898760388484	66.835031184553
4	3457	71.932499108833	0
4	3468	72.019607692091	0
4	3506	72.898760388484	35.559194431011
4	3530	73.402924158242	0
4	3573	73.898760388484	36.122166417237
4	3595	74.533842637431	0
4	3601	74.864752518607	0
4	3613	74.898760388484	37.087962998879
4	3647	75.747633063564	0
4	3662	75.898760388484	56.360669572922
4	3708	76.898760388484	38.028953613498
4	3748	77.898760388484	67.611812753359
4	3782	78.898760388484	39.57078072954
4	3807	79.541656846652	0
4	3822	79.898760388484	74.193322011875
4	3859	80.774537309683	0
4	3862	80.787862554511	0
4	3874	80.898760388484	69.662318169862
4	3914	81.898760388484	40.929883151613
4	3958	82.898760388484	41.29642053389
4	4007	83.898760388484	82.438151857143
4	4027	84.447519885276	0
4	4058	84.898760388484	61.598742288418
4	4072	84.960234527906	0
4	4097	85.898760388484	42.270511716787
4	4134	86.898760388484	74.603484038374
4	4137	86.942124869015	0
4	4177	87.898760388484	75.160080009753
4	4197	88.429554623355	0
4	4217	88.693825087491	0
4	4223	88.748732460042	0
4	4235	88.898760388484	43.62379261546
4	4293	89.898760388484	44.078935487315
4	4307	90.041880318838	0
4	4336	90.898760388484	65.595501765911
4	4350	91.156767740745	0
4	4388	91.898760388484	85.574392552248
4	4428	92.551636832008	0
4	4443	92.898760388484	66.335567955802
4	4469	93.220939703994	0
4	4504	93.898760388484	80.707977949528
4	4536	94.410435955329	0
4	4547	94.641856927284	0
4	4562	94.898760388484	45.368974895411
4	4617	95.898760388484	68.452438913843
4	4628	96.150072158911	0
4	4678	96.898760388484	93.867041758044
4	4715	97.898760388484	69.123681040093
4	4744	98.376156148353	0
4	4755	98.567452194251	0
4	4773	98.898760388484	46.484430607004
4	4804	99.604697288354	0
4	4810	99.778892448728	0
4	4822	99.898760388484	85.702106944361
4	4825	99.934178034233	0
4	4883	100.898760388484	71.274460228529
4	4900	101.077973413352	0
4	4944	101.898760388484	47.487258639514
4	4947	101.942911522781	0
4	4978	102.898760388484	95.438453610538
4	4989	103.230873497857	0
4	5015	103.740075984723	0
4	5030	103.898760388484	48.979393516827
4	5079	104.898760388484	49.377714530303
4	5082	104.942789768552	0
4	5131	105.898760388484	75.681836201077
4	5151	106.399349980128	0
4	5180	106.898760388484	91.643364229267
4	5220	107.898760388484	91.999583227664
4	5240	108.349326891975	0
4	5263	108.898760388484	76.80837632122
4	5309	109.898760388484	50.863235849766
4	5361	110.898760388484	107.86925573952
4	5401	111.898760388484	51.732880303855
4	5450	112.898760388484	52.488389281812
4	5476	113.23282588232	0
4	5505	113.898760388484	80.683094304376
4	5522	114.373104759239	0
4	5529	114.469646038267	0
4	5560	114.898760388484	53.400484848198
4	5577	115.075079819907	0
4	5583	115.108713740827	0
4	5586	115.124442864602	0
4	5603	115.844087762291	0
4	5615	115.898760388484	111.82242924974
4	5621	115.914589710652	0
4	5638	116.204863125775	0
4	5688	116.898760388484	54.916846460708
4	5699	117.072724995663	0
4	5740	117.898760388484	55.029344532224
4	5780	118.898760388484	56.029289180329
4	5823	119.898760388484	85.795232893939
4	5854	120.732287114125	0
4	5872	120.898760388484	103.87641492613
4	5914	121.882949707054	0
4	5922	121.898760388484	86.717398009803
4	5936	122.434751828692	0
4	5962	122.898760388484	57.968467939448
4	5982	123.243731523825	0
4	5995	123.779630319165	0
4	6011	123.898760388484	58.725749445776
4	6066	124.898760388484	121.7780947134
4	6112	125.898760388484	89.784995129396
4	6149	126.898760388484	90.445330396814
4	6160	127.2502753997	0
4	6170	127.60204278513	0
4	6192	127.898760388484	59.781269168353
4	6235	128.898760388484	110.15608326841
4	6284	129.898760388484	60.89748351232
4	6321	130.898760388484	61.573284398834
4	6379	131.898760388484	62.431642364039
4	6402	132.431763033099	0
4	6415	132.794841873283	0
4	6437	132.898760388484	95.062351190277
4	6454	133.228506728657	0
4	6483	133.898760388484	63.169829690552
4	6532	134.898760388484	124.54403313255
4	6572	135.898760388484	132.757669125
4	6589	136.085932076473	0
4	6618	136.898760388484	64.720274914124
4	6641	137.320611952526	0
4	6673	137.898760388484	117.05076196762
4	6709	138.511593405923	0
4	6728	138.898760388484	65.842059835406
4	6768	139.898760388484	66.496540251697
4	6811	140.898760388484	67.221012314659
4	6863	141.898760388484	130.96950072581
4	6884	142.402503496331	0
4	6897	142.727920213493	0
4	6909	142.898760388484	101.58981571099
4	6933	143.472298474891	0
4	6940	143.878024818758	0
4	6952	143.898760388484	68.683183600182
4	6969	144.277820091235	0
4	7003	144.898760388484	69.482741405096
4	7040	145.898760388484	134.86493950004
4	7061	146.260632671509	0
4	7074	146.749741082129	0
4	7086	146.898760388484	70.764494924988
4	7120	147.723619673609	0
4	7135	147.898760388484	136.80282420957
4	7161	148.742572854685	0
4	7182	148.898760388484	71.831883069719
4	7196	149.060965870741	0
4	7199	149.091667643752	0
4	7234	149.898760388484	72.568305956884
4	7251	150.099681184236	0
4	7295	150.898760388484	107.75008292592
4	7298	150.916273873084	0
4	7356	151.898760388484	108.6178992163
4	7402	152.898760388484	73.457417182501
4	7419	153.282564136931	0
4	7451	153.898760388484	147.78153703382
4	7468	154.324408601752	0
4	7497	154.898760388484	74.791574695864
4	7534	155.898760388484	75.444821392075
4	7562	156.787052871158	0
4	7565	156.816584682322	0
4	7577	156.898760388484	112.10807576069
4	7632	157.898760388484	113.07428897514
4	7652	158.38124123302	0
4	7678	158.898760388484	76.554719693979
4	7724	159.898760388484	115.00261359083
4	7735	160.134689351296	0
4	7741	160.277938055081	0
4	7767	160.898760388484	77.154043997019
4	7807	161.898760388484	78.006818959706
4	7859	162.898760388484	138.15919184478
4	7908	163.898760388484	79.447811289715
4	7925	164.219396739707	0
4	7963	164.898760388484	161.29842098774
4	8000	165.898760388484	80.731765971721
4	8049	166.898760388484	141.77563163068
4	8073	167.258928329841	0
4	8107	167.898760388484	81.889629668884
4	8159	168.898760388484	161.26500105983
4	8187	169.677979724	0
4	8202	169.898760388484	82.334335308529
4	8232	170.418231915415	0
4	8263	170.898760388484	121.95276675202
4	8277	171.054335369781	0
4	8318	171.898760388484	83.82434447468
4	8333	172.144580956242	0
4	8340	172.514560135993	0
4	8358	172.898760388484	84.301376821024
4	8379	173.163970862787	0
4	8398	173.898760388484	85.159251309631
4	8447	174.898760388484	160.30261052511
4	8471	175.377198094322	0
4	8487	175.814937550435	0
4	8499	175.898760388484	126.72962754392
4	8533	176.871378544616	0
4	8545	176.898760388484	127.10703019995
4	8548	176.909667342388	0
4	8594	177.898760388484	86.104391530624
4	8634	178.898760388484	151.92830397968
4	8671	179.898760388484	152.46657308363
4	8708	180.898760388484	87.805945895019
4	8769	181.898760388484	88.062362703243
4	8815	182.898760388484	131.8882333966
4	8864	183.898760388484	132.83655049081
4	8882	184.143135795187	0
4	8907	184.898760388484	89.308648058219
4	8944	185.898760388484	90.112186172322
4	8955	186.028000409392	0
4	8993	186.898760388484	91.039767062207
4	9021	187.546369557789	0
4	9024	187.555340945123	0
4	9027	187.657659424696	0
4	9030	187.752226161197	0
4	9042	187.898760388484	92.030031652866
4	9066	188.440937005153	0
4	9079	188.717424689254	0
4	9097	188.898760388484	136.97562685413
4	9149	189.898760388484	93.711447804987
4	9204	190.898760388484	94.248057777447
4	9253	191.898760388484	186.7926367291
4	9296	192.898760388484	140.66465904916
4	9299	192.912693309376	0
4	9317	193.392985123184	0
4	9320	193.415203775203	0
4	9351	193.898760388484	165.2500644302
4	9368	193.98041541005	0
4	9400	194.898760388484	95.655609168664
4	9411	195.040060353259	0
4	9427	195.420179384597	0
4	9455	195.898760388484	142.5280625539
4	9507	196.898760388484	96.842710807478
4	9510	196.915410502726	0
4	9562	197.898760388484	182.43069467149
4	9589	198.130166211294	0
4	9611	198.898760388484	97.794421702522
4	9648	199.898760388484	98.697624230214
5	7	0.485128163722	1
5	8	0.485128163722	0
5	11	0.543512832815	1
5	26	1.353259139138	2
5	30	1.485128163722	1
5	58	2.485128163722	0
5	92	2.898760388484	1
5	118	3.485128163722	0
5	130	3.858425112743	1
5	142	3.898760388484	2
5	153	4.009655966408	3
5	164	4.485128163722	2
5	179	4.898760388484	3
5	201	5.485128163722	2
5	219	5.898760388484	3
5	234	6.04997022435	4
5	241	6.485128163722	3
5	253	6.78493464554	4
5	271	6.898760388484	5
5	290	7.485128163722	4
5	305	7.806366519889	5
5	320	7.898760388484	6
5	344	8.341932240117	7
5	351	8.485128163722	6
5	378	8.898760388484	7
5	406	9.485128163722	6
5	415	9.677222424741	7
5	430	9.898760388484	8
5	458	10.485128163722	7
5	479	10.898760388484	8
5	507	11.485128163722	7
5	525	11.898760388484	8
5	557	12.485128163722	7
5	563	12.555137446019	8
5	581	12.898760388484	9
5	609	13.485128163722	8
5	615	13.49119900579	9
5	639	13.898760388484	10
5	661	14.485128163722	9
5	685	14.898760388484	10
5	710	15.485128163722	9
5	734	15.898760388484	10
5	762	16.485128163722	9
5	771	16.684145647844	10
5	786	16.898760388484	11
5	814	17.485128163722	10
5	832	17.898760388484	11
5	857	18.485128163722	10
5	875	18.898760388484	11
5	891	19.485128163722	10
5	903	19.671335539696	11
5	909	19.72866246612	12
5	921	19.898760388484	13
5	939	20.328609352761	14
5	942	20.348799480907	15
5	945	20.388775779965	16
5	946	20.485128163722	15
5	967	20.898760388484	16
5	981	20.971654168832	17
5	991	21.417073630752	18
5	995	21.485128163722	17
5	1019	21.898760388484	18
5	1033	22.072719915116	19
5	1047	22.485128163722	18
5	1068	22.898760388484	19
5	1087	23.485128163722	18
5	1114	23.898760388484	19
5	1139	24.485128163722	18
5	1145	24.576631698201	19
5	1160	24.898760388484	20
5	1163	24.90197211373	21
5	1166	24.911372864394	22
5	1191	25.485128163722	21
5	1206	25.898760388484	22
5	1217	26.012218774485	23
5	1231	26.485128163722	22
5	1264	26.898760388484	23
5	1301	27.485128163722	22
5	1310	27.853501245972	23
5	1322	27.898760388484	24
5	1347	28.485128163722	23
5	1374	28.898760388484	24
5	1396	29.485128163722	23
5	1420	29.898760388484	24
5	1439	30.485128163722	23
5	1460	30.898760388484	24
5	1481	31.128644423687	25
5	1485	31.485128163722	24
5	1503	31.898760388484	25
5	1528	32.485128163722	24
5	1537	32.585462982251	25
5	1552	32.898760388484	26
5	1563	32.961201824658	27
5	1577	33.485128163722	26
5	1592	33.898760388484	27
5	1614	34.485128163722	26
5	1638	34.898760388484	27
5	1666	35.485128163722	26
5	1687	35.898760388484	27
5	1720	36.325572277709	28
5	1724	36.485128163722	27
5	1745	36.898760388484	28
5	1772	37.28794733348	29
5	1779	37.485128163722	28
5	1809	37.898760388484	29
5	1824	38.131835806071	30
5	1831	38.485128163722	29
5	1861	38.898760388484	30
5	1885	39.187685414731	31
5	1889	39.485128163722	30
5	1895	39.489251327954	31
5	1910	39.898760388484	32
5	1925	40.2593281875	33
5	1926	40.485128163722	32
5	1938	40.853401685824	33
5	1950	40.898760388484	34
5	1981	41.485128163722	33
5	2002	41.898760388484	34
5	2024	42.485128163722	33
5	2039	42.898760388484	34
5	2069	43.372683815907	35
5	2070	43.485128163722	34
5	2091	43.898760388484	35
5	2110	44.485128163722	34
5	2137	44.898760388484	35
5	2164	45.374670311433	36
5	2165	45.485128163722	35
5	2192	45.898760388484	36
5	2214	46.485128163722	35
5	2226	46.655004515245	36
5	2238	46.898760388484	37
5	2249	47.101257335764	38
5	2254	47.485128163722	37
5	2272	47.898760388484	38
5	2297	48.485128163722	37
5	2315	48.898760388484	38
5	2359	49.485128163722	37
5	2386	49.898760388484	38
5	2397	49.985869087866	39
5	2402	50.485128163722	38
5	2421	50.893833115191	39
5	2429	50.898760388484	40
5	2454	51.485128163722	39
5	2460	51.587032884729	40
5	2463	51.858700955071	41
5	2478	51.898760388484	42
5	2506	52.485128163722	41
5	2524	52.898760388484	42
5	2546	53.485128163722	41
5	2567	53.898760388484	42
5	2589	54.485128163722	41
5	2622	54.898760388484	42
5	2641	55.485128163722	41
5	2668	55.898760388484	42
5	2696	56.485128163722	41
5	2705	56.737833843065	42
5	2723	56.898760388484	43
5	2745	57.485128163722	42
5	2769	57.898760388484	43
5	2794	58.485128163722	42
5	2800	58.866503937596	43
5	2812	58.898760388484	44
5	2839	59.471085155931	45
5	2840	59.485128163722	44
5	2861	59.898760388484	45
5	2882	60.485128163722	44
5	2892	60.725288426022	45
5	2901	60.872884458913	46
5	2913	60.898760388484	47
5	2931	61.485128163722	46
5	2956	61.898760388484	47
5	2970	62.293267914498	48
5	2971	62.485128163722	47
5	2981	62.685840942686	48
5	3005	62.898760388484	49
5	3024	63.485128163722	48
5	3048	63.898760388484	49
5	3072	64.46398427952	50
5	3073	64.485128163722	49
5	3091	64.898760388484	50
5	3116	65.485128163722	49
5	3128	65.627097562945	50
5	3140	65.898760388484	51
5	3143	65.920049021432	52
5	3164	66.296478372953	53
5	3165	66.485128163722	52
5	3189	66.898760388484	53
5	3200	67.026706038192	54
5	3213	67.259231056577	55
5	3217	67.485128163722	54
5	3241	67.898760388484	55
5	3272	68.485128163722	54
5	3278	68.570203424737	55
5	3281	68.69523601466	56
5	3296	68.898760388484	57
5	3324	69.485128163722	56
5	3336	69.818696514208	57
5	3348	69.898760388484	58
5	3376	70.485128163722	57
5	3391	70.652074754854	58
5	3415	70.898760388484	59
5	3437	71.485128163722	58
5	3455	71.898760388484	59
5	3458	71.932499108833	60
5	3469	72.019607692091	61
5	3489	72.485128163722	60
5	3507	72.898760388484	61
5	3531	73.402924158242	62
5	3541	73.485128163722	61
5	3574	73.898760388484	62
5	3590	74.485128163722	61
5	3596	74.533842637431	62
5	3602	74.864752518607	63
5	3614	74.898760388484	64
5	3639	75.485128163722	63
5	3648	75.747633063564	64
5	3663	75.898760388484	65
5	3685	76.485128163722	64
5	3709	76.898760388484	65
5	3734	77.485128163722	64
5	3749	77.898760388484	65
5	3768	78.485128163722	64
5	3783	78.898760388484	65
5	3802	79.485128163722	64
5	3808	79.541656846652	65
5	3823	79.898760388484	66
5	3848	80.485128163722	65
5	3860	80.774537309683	66
5	3863	80.787862554511	67
5	3875	80.898760388484	68
5	3894	81.485128163722	67
5	3915	81.898760388484	68
5	3941	82.485128163722	67
5	3959	82.898760388484	68
5	3981	83.485128163722	67
5	4008	83.898760388484	68
5	4028	84.447519885276	69
5	4032	84.485128163722	68
5	4059	84.898760388484	69
5	4073	84.960234527906	70
5	4080	85.485128163722	69
5	4098	85.898760388484	70
5	4120	86.485128163722	69
5	4135	86.898760388484	70
5	4138	86.942124869015	71
5	4157	87.485128163722	70
5	4178	87.898760388484	71
5	4198	88.429554623355	72
5	4203	88.485128163722	71
5	4218	88.693825087491	72
5	4224	88.748732460042	73
5	4236	88.898760388484	74
5	4264	89.485128163722	73
5	4294	89.898760388484	74
5	4308	90.041880318838	75
5	4316	90.485128163722	74
5	4337	90.898760388484	75
5	4351	91.156767740745	76
5	4362	91.485128163722	75
5	4389	91.898760388484	76
5	4423	92.485128163722	75
5	4429	92.551636832008	76
5	4444	92.898760388484	77
5	4470	93.220939703994	78
5	4475	93.485128163722	77
5	4505	93.898760388484	78
5	4537	94.410435955329	79
5	4542	94.485128163722	78
5	4548	94.641856927284	79
5	4563	94.898760388484	80
5	4579	95.485128163722	79
5	4618	95.898760388484	80
5	4629	96.150072158911	81
5	4643	96.485128163722	80
5	4679	96.898760388484	81
5	4698	97.485128163722	80
5	4716	97.898760388484	81
5	4745	98.376156148353	82
5	4750	98.485128163722	81
5	4756	98.567452194251	82
5	4774	98.898760388484	83
5	4799	99.485128163722	82
5	4805	99.604697288354	83
5	4811	99.778892448728	84
5	4823	99.898760388484	85
5	4826	99.934178034233	86
5	4857	100.485128163722	85
5	4884	100.898760388484	86
5	4901	101.077973413352	87
5	4918	101.485128163722	86
5	4945	101.898760388484	87
5	4948	101.942911522781	88
5	4964	102.485128163722	87
5	4979	102.898760388484	88
5	4990	103.230873497857	89
5	5001	103.485128163722	88
5	5016	103.740075984723	89
5	5031	103.898760388484	90
5	5053	104.485128163722	89
5	5080	104.898760388484	90
5	5083	104.942789768552	91
5	5105	105.485128163722	90
5	5132	105.898760388484	91
5	5152	106.399349980128	92
5	5160	106.485128163722	91
5	5181	106.898760388484	92
5	5206	107.485128163722	91
5	5221	107.898760388484	92
5	5241	108.349326891975	93
5	5246	108.485128163722	92
5	5264	108.898760388484	93
5	5292	109.485128163722	92
5	5310	109.898760388484	93
5	5338	110.485128163722	92
5	5362	110.898760388484	93
5	5387	111.485128163722	92
5	5402	111.898760388484	93
5	5424	112.485128163722	92
5	5451	112.898760388484	93
5	5477	113.23282588232	94
5	5482	113.485128163722	93
5	5506	113.898760388484	94
5	5523	114.373104759239	95
5	5530	114.469646038267	96
5	5531	114.485128163722	95
5	5561	114.898760388484	96
5	5578	115.075079819907	97
5	5584	115.108713740827	98
5	5587	115.124442864602	99
5	5592	115.485128163722	98
5	5604	115.844087762291	99
5	5616	115.898760388484	100
5	5622	115.914589710652	101
5	5639	116.204863125775	102
5	5650	116.485128163722	101
5	5689	116.898760388484	102
5	5700	117.072724995663	103
5	5717	117.485128163722	102
5	5741	117.898760388484	103
5	5763	118.485128163722	102
5	5781	118.898760388484	103
5	5797	119.485128163722	102
5	5824	119.898760388484	103
5	5849	120.485128163722	102
5	5855	120.732287114125	103
5	5873	120.898760388484	104
5	5892	121.485128163722	103
5	5915	121.882949707054	104
5	5923	121.898760388484	105
5	5937	122.434751828692	106
5	5938	122.485128163722	105
5	5963	122.898760388484	106
5	5983	123.243731523825	107
5	5984	123.485128163722	106
5	5996	123.779630319165	107
5	6012	123.898760388484	108
5	6036	124.485128163722	107
5	6067	124.898760388484	108
5	6085	125.485128163722	107
5	6113	125.898760388484	108
5	6125	126.485128163722	107
5	6150	126.898760388484	108
5	6161	127.2502753997	109
5	6162	127.485128163722	108
5	6171	127.60204278513	109
5	6193	127.898760388484	110
5	6214	128.485128163722	109
5	6236	128.898760388484	110
5	6257	129.485128163722	109
5	6285	129.898760388484	110
5	6300	130.485128163722	109
5	6322	130.898760388484	110
5	6346	131.485128163722	109
5	6380	131.898760388484	110
5	6403	132.431763033099	111
5	6404	132.485128163722	110
5	6416	132.794841873283	111
5	6438	132.898760388484	112
5	6455	133.228506728657	113
5	6459	133.485128163722	112
5	6484	133.898760388484	113
5	6499	134.485128163722	112
5	6533	134.898760388484	113
5	6554	135.485128163722	112
5	6573	135.898760388484	113
5	6590	136.085932076473	114
5	6597	136.485128163722	113
5	6619	136.898760388484	114
5	6642	137.320611952526	115
5	6646	137.485128163722	114
5	6674	137.898760388484	115
5	6698	138.485128163722	114
5	6710	138.511593405923	115
5	6729	138.898760388484	116
5	6747	139.485128163722	115
5	6769	139.898760388484	116
5	6790	140.485128163722	115
5	6812	140.898760388484	116
5	6831	141.485128163722	115
5	6864	141.898760388484	116
5	6885	142.402503496331	117
5	6886	142.485128163722	116
5	6898	142.727920213493	117
5	6910	142.898760388484	118
5	6934	143.472298474891	119
5	6935	143.485128163722	118
5	6941	143.878024818758	119
5	6953	143.898760388484	120
5	6970	144.277820091235	121
5	6974	144.485128163722	120
5	7004	144.898760388484	121
5	7026	145.485128163722	120
5	7041	145.898760388484	121
5	7062	146.260632671509	122
5	7063	146.485128163722	121
5	7075	146.749741082129	122
5	7087	146.898760388484	123
5	7109	147.485128163722	122
5	7121	147.723619673609	123
5	7136	147.898760388484	124
5	7156	148.485128163722	123
5	7162	148.742572854685	124
5	7183	148.898760388484	125
5	7197	149.060965870741	126
5	7200	149.091667643752	127
5	7208	149.485128163722	126
5	7235	149.898760388484	127
5	7252	150.099681184236	128
5	7262	150.485128163722	127
5	7296	150.898760388484	128
5	7299	150.916273873084	129
5	7329	151.485128163722	128
5	7357	151.898760388484	129
5	7378	152.485128163722	128
5	7403	152.898760388484	129
5	7420	153.282564136931	130
5	7427	153.485128163722	129
5	7452	153.898760388484	130
5	7469	154.324408601752	131
5	7470	154.485128163722	130
5	7498	154.898760388484	131
5	7507	155.485128163722	130
5	7535	155.898760388484	131
5	7550	156.485128163722	130
5	7563	156.787052871158	131
5	7566	156.816584682322	132
5	7578	156.898760388484	133
5	7605	157.485128163722	132
5	7633	157.898760388484	133
5	7653	158.38124123302	134
5	7657	158.485128163722	133
5	7679	158.898760388484	134
5	7697	159.485128163722	133
5	7725	159.898760388484	134
5	7736	160.134689351296	135
5	7742	160.277938055081	136
5	7743	160.485128163722	135
5	7768	160.898760388484	136
5	7783	161.485128163722	135
5	7808	161.898760388484	136
5	7832	162.485128163722	135
5	7860	162.898760388484	136
5	7878	163.485128163722	135
5	7909	163.898760388484	136
5	7926	164.219396739707	137
5	7927	164.485128163722	136
5	7964	164.898760388484	137
5	7976	165.485128163722	136
5	8001	165.898760388484	137
5	8025	166.485128163722	136
5	8050	166.898760388484	137
5	8074	167.258928329841	138
5	8078	167.485128163722	137
5	8108	167.898760388484	138
5	8136	168.485128163722	137
5	8160	168.898760388484	138
5	8179	169.485128163722	137
5	8188	169.677979724	138
5	8203	169.898760388484	139
5	8233	170.418231915415	140
5	8237	170.485128163722	139
5	8264	170.898760388484	140
5	8278	171.054335369781	141
5	8289	171.485128163722	140
5	8319	171.898760388484	141
5	8334	172.144580956242	142
5	8335	172.485128163722	141
5	8341	172.514560135993	142
5	8359	172.898760388484	143
5	8380	173.163970862787	144
5	8384	173.485128163722	143
5	8399	173.898760388484	144
5	8424	174.485128163722	143
5	8448	174.898760388484	144
5	8472	175.377198094322	145
5	8476	175.485128163722	144
5	8488	175.814937550435	145
5	8500	175.898760388484	146
5	8522	176.485128163722	145
5	8534	176.871378544616	146
5	8546	176.898760388484	147
5	8549	176.909667342388	148
5	8574	177.485128163722	147
5	8595	177.898760388484	148
5	8614	178.485128163722	147
5	8635	178.898760388484	148
5	8654	179.485128163722	147
5	8672	179.898760388484	148
5	8694	180.485128163722	147
5	8709	180.898760388484	148
5	8731	181.485128163722	147
5	8770	181.898760388484	148
5	8795	182.485128163722	147
5	8816	182.898760388484	148
5	8847	183.485128163722	147
5	8865	183.898760388484	148
5	8883	184.143135795187	149
5	8893	184.485128163722	148
5	8908	184.898760388484	149
5	8927	185.485128163722	148
5	8945	185.898760388484	149
5	8956	186.028000409392	150
5	8967	186.485128163722	149
5	8994	186.898760388484	150
5	9016	187.485128163722	149
5	9022	187.546369557789	150
5	9025	187.555340945123	151
5	9028	187.657659424696	152
5	9031	187.752226161197	153
5	9043	187.898760388484	154
5	9067	188.440937005153	155
5	9068	188.485128163722	154
5	9080	188.717424689254	155
5	9098	188.898760388484	156
5	9132	189.485128163722	155
5	9150	189.898760388484	156
5	9172	190.485128163722	155
5	9205	190.898760388484	156
5	9224	191.485128163722	155
5	9254	191.898760388484	156
5	9276	192.485128163722	155
5	9297	192.898760388484	156
5	9300	192.912693309376	157
5	9318	193.392985123184	158
5	9321	193.415203775203	159
5	9325	193.485128163722	158
5	9352	193.898760388484	159
5	9369	193.98041541005	160
5	9377	194.485128163722	159
5	9401	194.898760388484	160
5	9412	195.040060353259	161
5	9428	195.420179384597	162
5	9429	195.485128163722	161
5	9456	195.898760388484	162
5	9484	196.485128163722	161
5	9508	196.898760388484	162
5	9511	196.915410502726	163
5	9542	197.485128163722	162
5	9563	197.898760388484	163
5	9590	198.130166211294	164
5	9591	198.485128163722	163
5	9612	198.898760388484	164
5	9631	199.485128163722	163
5	9649	199.898760388484	164
6	13	0.898560388484	0
6	21	1.216916529326	0
6	39	1.866362877577	0
6	69	2.61903699089	0
6	76	2.859704212075	2
6	149	3.951745335884	3
6	162	4.427406255165	0
6	186	4.951745335884	2
6	226	5.951745335884	3
6	278	6.951745335884	3
6	327	7.951745335884	4
6	337	8.272628124307	0
6	349	8.478831406337	0
6	359	8.722879897074	0
6	362	8.868157924366	0
6	369	8.887126493567	0
6	385	8.951745335884	2
6	401	9.278897304244	0
6	411	9.530339236319	0
6	437	9.951745335884	2
6	443	10.018896285627	0
6	466	10.616642362445	0
6	489	10.951745335884	3
6	512	11.812750161902	0
6	532	11.951745335884	2
6	583	12.923347607589	0
6	594	12.951745335884	2
6	623	13.767775401117	0
6	646	13.951745335884	2
6	649	14.002076919893	0
6	656	14.177990465319	0
6	692	14.951745335884	5
6	747	15.951745335884	2
6	793	16.951745335884	4
6	842	17.951745335884	2
6	882	18.951745335884	3
6	899	19.538090815562	0
6	928	19.951745335884	2
6	974	20.951745335884	3
6	1026	21.951745335884	2
6	1075	22.951745335884	5
6	1082	23.300018100066	0
6	1121	23.951745335884	2
6	1173	24.951745335884	2
6	1189	25.303258622573	0
6	1213	25.951745335884	3
6	1239	26.563192432682	0
6	1271	26.951745335884	2
6	1299	27.446321474641	0
6	1329	27.951745335884	4
6	1361	28.775079348391	0
6	1381	28.951745335884	2
6	1407	29.624300159955	0
6	1427	29.951745335884	3
6	1437	30.216924187407	0
6	1470	30.951745335884	2
6	1510	31.951745335884	2
6	1516	32.090384067264	0
6	1559	32.951745335884	5
6	1572	33.215666084108	0
6	1599	33.951745335884	4
6	1602	34.103527494545	0
6	1648	34.951745335884	2
6	1661	35.181362378681	0
6	1697	35.951745335884	5
6	1710	36.113765259088	0
6	1722	36.45342999167	0
6	1752	36.951745335884	2
6	1796	37.836409198207	0
6	1816	37.951745335884	3
6	1871	38.951745335884	5
6	1917	39.951745335884	2
6	1963	40.951745335884	3
6	1976	41.308944677489	0
6	2009	41.951745335884	3
6	2046	42.951745335884	3
6	2059	43.148677462566	0
6	2062	43.280861172181	0
6	2098	43.951745335884	4
6	2118	44.79068462779	0
6	2121	44.824471413342	0
6	2128	44.896146797655	0
6	2147	44.951745335884	2
6	2199	45.951745335884	5
6	2245	46.951745335884	2
6	2279	47.951745335884	4
6	2320	48.94599363646	0
6	2328	48.951745335884	3
6	2347	49.169132844561	0
6	2373	49.791730188539	0
6	2393	49.951745335884	2
6	2439	50.951745335884	2
6	2442	51.010526991882	0
6	2445	51.062209897677	0
6	2480	51.923133534358	0
6	2488	51.951745335884	5
6	2494	52.234101339328	0
6	2531	52.951745335884	2
6	2544	53.370697834585	0
6	2574	53.951745335884	3
6	2635	54.951745335884	5
6	2675	55.951745335884	2
6	2701	56.708632168439	0
6	2730	56.951745335884	3
6	2736	57.082301962833	0
6	2776	57.951745335884	2
6	2782	58.043741534404	0
6	2819	58.951745335884	2
6	2835	59.40567325871	0
6	2868	59.951745335884	4
6	2923	60.951745335884	4
6	2943	61.675513274494	0
6	2963	61.951745335884	2
[...]
22	7900	163.879064054203	90.455815265266
22	7942	164.689714532218	0
22	7952	164.879064054203	89.035651060422
22	7992	165.879064054203	92.390702400479
22	8038	166.879064054203	92.579561378251
22	8060	167.057950585221	0
22	8099	167.879064054203	90.486639381267
22	8118	168.04018876963	0
22	8125	168.103212213887	0
22	8147	168.746937019739	0
22	8151	168.879064054203	90.423590282688
22	8170	168.954640305951	0
22	8194	169.879064054203	89.504438705794
22	8217	170.071158879509	0
22	8235	170.457653061553	0
22	8255	170.879064054203	90.81813151962
22	8294	171.504845317045	0
22	8310	171.879064054203	91.128696981772
22	8343	172.645369792009	0
22	8350	172.879064054203	90.643007062812
22	8376	173.161573246946	0
22	8382	173.433924473301	0
22	8390	173.879064054203	90.992209720453
22	8416	174.156526710836	0
22	8429	174.615278013482	0
22	8439	174.879064054203	92.644454499122
22	8481	175.511963850067	0
22	8491	175.879064054203	92.304266241992
22	8527	176.582046339695	0
22	8537	176.879064054203	92.844474924216
22	8566	177.097493889702	0
22	8579	177.531193360103	0
22	8586	177.879064054203	92.117841544474
22	8626	178.879064054203	92.696848246425
22	8663	179.879064054203	93.442595072874
22	8689	180.305947981683	0
22	8692	180.426406249452	0
22	8700	180.879064054203	93.912633493602
22	8742	181.624557637296	0
22	8751	181.689241242441	0
22	8757	181.836873125672	0
22	8761	181.879064054203	93.326460665811
22	8787	182.138828129161	0
22	8807	182.879064054203	95.467484154196
22	8856	183.879064054203	96.062301271854
22	8888	184.187411285758	0
22	8899	184.879064054203	93.71988886349
22	8936	185.879064054203	97.977721780092
22	8982	186.879064054203	94.904870532594
22	8996	186.933663155982	0
22	9034	187.879064054203	95.608968659346
22	9056	188.00299421435	0
22	9082	188.873074124717	0
22	9089	188.879064054203	96.552002126879
22	9141	189.879064054203	101.61842787497
22	9189	190.836197414274	0
22	9196	190.879064054203	97.904827422836
22	9229	191.497277215104	0
22	9238	191.765500308375	0
22	9245	191.879064054203	102.12579571077
22	9284	192.878364119987	0
22	9288	192.879064054203	99.291388333244
22	9340	193.879064054203	99.957984994869
22	9343	193.897759308055	0
22	9389	194.879064054203	100.75812945695
22	9392	194.879544213655	0
22	9437	195.649406149469	0
22	9447	195.879064054203	106.04293343785
22	9466	195.979512843523	0
22	9469	196.009920837287	0
22	9495	196.834492560466	0
22	9499	196.879064054203	102.04612139132
22	9513	196.923578517957	0
22	9554	197.879064054203	107.94905889057
22	9576	198.019228388206	0
22	9579	198.048853140503	0
22	9582	198.050061442381	0
22	9599	198.815600524655	0
22	9603	198.879064054203	107.81768012297
22	9640	199.879064054203	103.16700295711
23	52	1.951545335884	1
23	53	1.951545335884	0
23	73	2.790978188784	1
23	80	2.864663544249	2
23	84	2.879064054203	3
23	93	2.951545335884	2
23	117	3.276241540492	3
23	134	3.879064054203	4
23	143	3.951545335884	3
23	171	4.879064054203	4
23	180	4.951545335884	3
23	194	5.063729203931	4
23	207	5.705438376609	5
23	211	5.879064054203	6
23	220	5.951545335884	5
23	240	6.324367836236	6
23	263	6.879064054203	7
23	272	6.951545335884	6
23	289	7.460306777946	7
23	312	7.879064054203	8
23	321	7.951545335884	7
23	367	8.879064054203	8
23	379	8.951545335884	7
23	422	9.879064054203	8
23	431	9.951545335884	7
23	457	10.354727255933	8
23	471	10.879064054203	9
23	482	10.929259662674	10
23	483	10.951545335884	9
23	497	11.033820888449	10
23	500	11.095936178915	11
23	517	11.879064054203	12
23	526	11.951545335884	11
23	573	12.879064054203	12
23	588	12.951545335884	11
23	631	13.879064054203	12
23	640	13.951545335884	11
23	667	14.59614986337	12
23	677	14.879064054203	13
23	686	14.951545335884	12
23	709	15.468065716996	13
23	726	15.879064054203	14
23	741	15.951545335884	13
23	761	16.444929791067	14
23	778	16.879064054203	15
23	787	16.951545335884	14
23	824	17.879064054203	15
23	833	17.951545335884	14
23	836	17.95156512434	15
23	867	18.879064054203	16
23	876	18.951545335884	15
23	886	19.071379490094	16
23	906	19.70371608649	17
23	913	19.879064054203	18
23	922	19.951545335884	17
23	952	20.632194583391	18
23	959	20.879064054203	19
23	968	20.951545335884	18
23	978	20.964604824355	19
23	984	21.092661589666	20
23	994	21.443837679047	21
23	1004	21.570226315472	22
23	1011	21.879064054203	23
23	1020	21.951545335884	22
23	1030	21.952927264334	23
23	1053	22.487811640091	24
23	1060	22.879064054203	25
23	1069	22.951545335884	24
23	1086	23.320655156157	25
23	1099	23.629069996255	26
23	1103	23.879064054203	27
23	1115	23.951545335884	26
23	1152	24.879064054203	27
23	1167	24.951545335884	26
23	1198	25.879064054203	27
23	1207	25.951545335884	26
23	1224	26.114652353232	27
23	1230	26.456306520258	28
23	1246	26.658656958825	29
23	1249	26.678969417621	30
23	1252	26.859221669606	31
23	1256	26.879064054203	32
23	1265	26.951545335884	31
23	1314	27.879064054203	32
23	1323	27.951545335884	31
23	1356	28.624962742019	32
23	1366	28.879064054203	33
23	1375	28.951545335884	32
23	1402	29.521553612805	33
23	1412	29.879064054203	34
23	1421	29.951545335884	33
23	1452	30.879064054203	34
23	1464	30.951545335884	33
23	1495	31.879064054203	34
23	1504	31.951545335884	33
23	1534	32.573835269689	34
23	1544	32.879064054203	35
23	1553	32.951545335884	34
23	1576	33.444371096015	35
23	1584	33.879064054203	36
23	1593	33.951545335884	35
23	1623	34.736280364816	36
23	1627	34.879064054203	37
23	1642	34.951545335884	36
23	1652	34.998337606491	37
23	1672	35.549733596625	38
23	1675	35.569113377973	39
23	1679	35.879064054203	40
23	1691	35.951545335884	39
23	1714	36.204241093604	40
23	1730	36.546840718302	41
23	1737	36.879064054203	42
23	1746	36.951545335884	41
23	1756	37.106801788376	42
23	1766	37.252375766824	43
23	1785	37.606599899069	44
23	1801	37.879064054203	45
23	1810	37.951545335884	44
23	1830	38.409151884828	45
23	1853	38.879064054203	46
23	1865	38.951545335884	45
23	1875	38.973762385949	46
23	1902	39.879064054203	47
23	1911	39.951545335884	46
23	1942	40.879064054203	47
23	1957	40.951545335884	46
23	1994	41.879064054203	47
23	2003	41.951545335884	46
23	2031	42.879064054203	47
23	2040	42.951545335884	46
23	2054	43.111572146459	47
23	2083	43.879064054203	48
23	2092	43.951545335884	47
23	2102	44.067538570381	48
23	2126	44.879064054203	49
23	2140	44.909419532113	50
23	2141	44.951545335884	49
23	2184	45.879064054203	50
23	2193	45.951545335884	49
23	2203	46.104858098395	50
23	2210	46.121625864387	51
23	2230	46.879064054203	52
23	2239	46.951545335884	51
23	2264	47.879064054203	52
23	2273	47.951545335884	51
23	2290	48.058203101878	52
23	2296	48.472815644537	53
23	2304	48.879064054203	54
23	2322	48.951545335884	53
23	2339	49.145276161371	54
23	2345	49.163971631792	55
23	2378	49.879064054203	56
23	2387	49.951545335884	55
23	2411	50.742384353898	56
23	2418	50.879064054203	57
23	2433	50.951545335884	56
23	2467	51.879064054203	57
23	2482	51.951545335884	56
23	2498	52.273215580165	57
23	2516	52.879064054203	58
23	2525	52.951545335884	57
23	2535	53.040295234737	58
23	2556	53.879064054203	59
23	2568	53.951545335884	58
23	2585	54.429972298513	59
23	2598	54.668725171361	60
23	2610	54.874757219844	61
23	2614	54.879064054203	62
23	2629	54.951545335884	61
23	2660	55.879064054203	62
23	2669	55.951545335884	61
23	2682	56.220104653078	62
23	2688	56.279885615993	63
23	2708	56.849783181299	64
23	2715	56.879064054203	65
23	2724	56.951545335884	64
23	2761	57.879064054203	65
23	2770	57.951545335884	64
23	2780	58.041641284954	65
23	2786	58.111258956028	66
23	2804	58.879064054203	67
23	2813	58.951545335884	66
23	2829	59.248797461569	67
23	2853	59.879064054203	68
23	2862	59.951545335884	67
23	2875	60.182857794174	68
23	2895	60.791690707911	69
23	2898	60.812557926521	70
23	2905	60.879064054203	71
23	2917	60.951545335884	70
23	2927	61.072909338068	71
23	2930	61.458597032113	72
23	2948	61.879064054203	73
23	2957	61.951545335884	72
23	2997	62.879064054203	73
23	3006	62.951545335884	72
23	3036	63.806440793542	73
23	3040	63.879064054203	74
23	3049	63.951545335884	73
23	3062	64.011788562278	74
23	3083	64.879064054203	75
23	3095	64.951545335884	74
23	3132	65.879064054203	75
23	3144	65.951545335884	74
23	3181	66.879064054203	75
23	3190	66.951545335884	74
23	3207	67.064973231871	75
23	3210	67.231847873104	76
23	3226	67.784686243756	77
23	3233	67.879064054203	78
23	3242	67.951545335884	77
23	3271	68.407515553521	78
23	3288	68.879064054203	79
23	3297	68.951545335884	78
23	3333	69.782195507323	79
23	3340	69.879064054203	80
23	3352	69.951545335884	79
23	3375	70.404232426404	80
23	3388	70.584506725982	81
23	3407	70.879064054203	82
23	3416	70.951545335884	81
23	3426	71.023962116475	82
23	3447	71.879064054203	83
23	3459	71.951545335884	82
23	3485	72.404925212142	83
23	3488	72.451612955786	84
23	3499	72.879064054203	85
23	3508	72.951545335884	84
23	3566	73.879064054203	85
23	3575	73.951545335884	84
23	3606	74.879064054203	85
23	3615	74.951545335884	84
23	3645	75.720109356609	85
23	3655	75.879064054203	86
23	3664	75.951545335884	85
23	3694	76.588675088075	86
23	3701	76.879064054203	87
23	3710	76.951545335884	86
23	3741	77.879064054203	87
23	3750	77.951545335884	86
23	3775	78.879064054203	87
23	3784	78.951545335884	86
23	3811	79.84759606526	87
23	3815	79.879064054203	88
23	3824	79.951545335884	87
23	3867	80.879064054203	88
23	3879	80.951545335884	87
23	3907	81.879064054203	88
23	3918	81.92135752836	89
23	3919	81.951545335884	88
23	3948	82.879064054203	89
23	3960	82.951545335884	88
23	3997	83.879064054203	89
23	4009	83.951545335884	88
23	4051	84.879064054203	89
23	4063	84.951545335884	88
23	4090	85.879064054203	89
23	4101	85.929307183234	90
23	4102	85.951545335884	89
23	4127	86.879064054203	90
23	4139	86.951545335884	89
23	4170	87.879064054203	90
23	4182	87.951545335884	89
23	4228	88.879064054203	90
23	4237	88.951545335884	89
23	4259	89.169270150135	90
23	4270	89.532512369037	91
23	4273	89.691445548693	92
23	4286	89.879064054203	93
23	4298	89.951545335884	92
23	4329	90.879064054203	93
23	4338	90.951545335884	92
23	4377	91.835831013206	93
23	4381	91.879064054203	94
23	4392	91.937365097147	95
23	4393	91.951545335884	94
23	4409	92.252525125863	95
23	4436	92.879064054203	96
23	4445	92.951545335884	95
23	4467	93.148854330884	96
23	4490	93.732278101919	97
23	4497	93.879064054203	98
23	4509	93.951545335884	97
23	4525	94.21019608943	98
23	4531	94.300533333512	99
23	4555	94.879064054203	100
23	4564	94.951545335884	99
23	4574	95.379460242012	100
23	4610	95.879064054203	101
23	4619	95.951545335884	100
23	4668	96.879064054203	101
23	4671	96.881873035723	102
23	4680	96.951545335884	101
23	4704	97.556824009376	102
23	4708	97.879064054203	103
23	4717	97.951545335884	102
23	4736	98.288369348509	103
23	4766	98.879064054203	104
23	4778	98.951545335884	103
23	4788	99.150036840304	104
23	4808	99.712862042121	105
23	4815	99.879064054203	106
23	4827	99.951545335884	105
23	4856	100.481115383988	106
23	4873	100.879064054203	107
23	4885	100.951545335884	106
23	4895	100.979807716858	107
23	4910	101.118394538281	108
23	4927	101.728877383279	109
23	4930	101.815494377726	110
23	4934	101.879064054203	111
23	4949	101.951545335884	110
23	4959	102.429098587467	111
23	4971	102.879064054203	112
23	4980	102.951545335884	111
23	5023	103.879064054203	112
23	5032	103.951545335884	111
23	5059	104.52573486099	112
23	5062	104.55317696142	113
23	5072	104.879064054203	114
23	5084	104.951545335884	113
23	5111	105.563946124519	114
23	5124	105.879064054203	115
23	5135	105.93252906413	116
23	5136	105.951545335884	115
23	5166	106.632554700245	116
23	5173	106.879064054203	117
23	5188	106.951545335884	116
23	5198	107.243612261531	117
23	5213	107.879064054203	118
23	5225	107.951545335884	117
23	5235	108.101047364145	118
23	5238	108.272585991518	119
23	5256	108.879064054203	120
23	5265	108.951545335884	119
23	5302	109.879064054203	120
23	5311	109.951545335884	119
23	5347	110.667765780907	120
23	5354	110.879064054203	121
23	5366	110.951545335884	120
23	5394	111.879064054203	121
23	5403	111.951545335884	120
23	5413	111.968603208367	121
23	5416	112.096176782164	122
23	5430	112.535253767752	123
23	5440	112.879064054203	124
23	5452	112.951545335884	123
23	5468	112.976408578482	124
23	5488	113.489335570311	125
23	5491	113.594268317639	126
23	5498	113.879064054203	127
23	5510	113.951545335884	126
23	5537	114.533770303502	127
23	5543	114.591363220319	128
23	5546	114.681870690467	129
23	5553	114.879064054203	130
23	5564	114.946805628104	131
23	5565	114.951545335884	130
23	5608	115.879064054203	131
23	5619	115.89992816637	132
23	5623	115.951545335884	131
23	5662	116.686487258262	132
23	5668	116.698596503324	133
23	5674	116.821311510641	134
23	5678	116.879064054203	135
23	5690	116.951545335884	134
23	5726	117.78490420693	135
23	5733	117.879064054203	136
23	5745	117.951545335884	135
23	5758	117.962780964786	136
23	5769	118.636724409005	137
23	5773	118.879064054203	138
23	5782	118.951545335884	137
23	5809	119.658442756415	138
23	5816	119.879064054203	139
23	5825	119.951545335884	138
23	5835	120.033504699534	139
23	5865	120.879064054203	140
23	5874	120.951545335884	139
23	5901	121.652165765954	140
23	5912	121.879064054203	141
23	5924	121.951545335884	140
23	5955	122.879064054203	141
23	5964	122.951545335884	140
23	6004	123.879064054203	141
23	6013	123.951545335884	140
23	6032	124.267806698376	141
23	6051	124.774529912276	142
23	6059	124.879064054203	143
23	6071	124.951545335884	142
23	6081	125.203037516456	143
23	6105	125.879064054203	144
23	6114	125.951545335884	143
23	6139	126.879064054203	144
23	6142	126.890255805214	145
23	6151	126.951545335884	144
23	6185	127.879064054203	145
23	6197	127.951545335884	144
23	6228	128.879064054203	145
23	6237	128.951545335884	144
23	6250	129.163962971902	145
23	6263	129.607297367903	146
23	6266	129.667425737033	147
23	6277	129.879064054203	148
23	6289	129.951545335884	147
23	6314	130.879064054203	148
23	6323	130.951545335884	147
23	6369	131.879064054203	148
23	6381	131.951545335884	147
23	6394	132.15305682138	148
23	6423	132.854102330706	149
23	6427	132.879064054203	150
23	6439	132.951545335884	149
23	6452	133.125572297135	150
23	6476	133.879064054203	151
23	6487	133.936065444317	152
23	6488	133.951545335884	151
23	6525	134.879064054203	152
23	6534	134.951545335884	151
23	6565	135.879064054203	152
23	6574	135.951545335884	151
23	6584	135.955649947536	152
23	6611	136.879064054203	153
23	6623	136.951545335884	152
23	6636	137.186368798567	153
23	6655	137.779699366828	154
23	6666	137.879064054203	155
23	6678	137.951545335884	154
23	6713	138.706337967125	155
23	6721	138.879064054203	156
23	6730	138.951545335884	155
23	6740	139.027678269994	156
23	6743	139.188408310561	157
23	6761	139.879064054203	158
23	6770	139.951545335884	157
23	6780	140.085461324667	158
23	6786	140.328206762027	159
23	6804	140.879064054203	160
23	6813	140.951545335884	159
23	6827	141.195498780858	160
23	6840	141.514339829271	161
23	6850	141.879064054203	162
23	6865	141.951545335884	161
23	6875	142.028025442535	162
23	6902	142.879064054203	163
23	6911	142.951545335884	162
23	6931	143.261114169752	163
23	6945	143.879064054203	164
23	6954	143.951545335884	163
23	6967	144.243642512474	164
23	6993	144.879064054203	165
23	7005	144.951545335884	164
23	7033	145.879064054203	165
23	7045	145.951545335884	164
23	7079	146.879064054203	165
23	7091	146.951545335884	164
23	7118	147.658567414906	165
23	7128	147.879064054203	166
23	7137	147.951545335884	165
23	7147	148.07665907385	166
23	7168	148.871531909916	167
23	7172	148.879064054203	168
23	7184	148.951545335884	167
23	7194	149.032016017274	168
23	7227	149.879064054203	169
23	7242	149.951545335884	168
23	7288	150.879064054203	169
23	7300	150.951545335884	168
23	7310	150.972064227152	169
23	7349	151.879064054203	170
23	7360	151.945536770798	171
23	7361	151.951545335884	170
23	7395	152.879064054203	171
23	7404	152.951545335884	170
23	7414	153.133865931085	171
23	7417	153.136572805664	172
23	7426	153.394157672005	173
23	7444	153.879064054203	174
23	7456	153.951545335884	173
23	7466	154.311429468917	174
23	7490	154.879064054203	175
23	7499	154.951545335884	174
23	7527	155.879064054203	175
23	7539	155.951545335884	174
23	7570	156.879064054203	175
23	7582	156.951545335884	174
23	7615	157.602078299176	175
23	7622	157.879064054203	176
23	7634	157.951545335884	175
23	7644	158.085131323439	176
23	7650	158.180415806311	177
23	7656	158.438875055029	178
23	7671	158.879064054203	179
23	7683	158.951545335884	178
23	7693	158.967019045751	179
23	7717	159.879064054203	180
23	7726	159.951545335884	179
23	7760	160.879064054203	180
23	7769	160.951545335884	179
23	7779	161.149732935036	180
23	7800	161.879064054203	181
23	7809	161.951545335884	180
23	7828	162.121781903516	181
23	7852	162.879064054203	182
23	7861	162.951545335884	181
23	7901	163.879064054203	182
23	7910	163.951545335884	181
23	7943	164.689714532218	182
23	7953	164.879064054203	183
23	7965	164.951545335884	182
23	7993	165.879064054203	183
23	8002	165.951545335884	182
23	8039	166.879064054203	183
23	8051	166.951545335884	182
23	8061	167.057950585221	183
23	8100	167.879064054203	184
23	8109	167.951545335884	183
23	8119	168.04018876963	184
23	8126	168.103212213887	185
23	8148	168.746937019739	186
23	8152	168.879064054203	187
23	8161	168.951545335884	186
23	8171	168.954640305951	187
23	8195	169.879064054203	188
23	8204	169.951545335884	187
23	8218	170.071158879509	188
23	8236	170.457653061553	189
23	8256	170.879064054203	190
23	8265	170.951545335884	189
23	8295	171.504845317045	190
23	8311	171.879064054203	191
23	8320	171.951545335884	190
23	8344	172.645369792009	191
23	8351	172.879064054203	192
23	8360	172.951545335884	191
23	8377	173.161573246946	192
23	8383	173.433924473301	193
23	8391	173.879064054203	194
23	8400	173.951545335884	193
23	8417	174.156526710836	194
23	8430	174.615278013482	195
23	8440	174.879064054203	196
23	8449	174.951545335884	195
23	8482	175.511963850067	196
23	8492	175.879064054203	197
23	8504	175.951545335884	196
23	8528	176.582046339695	197
23	8538	176.879064054203	198
23	8550	176.951545335884	197
23	8567	177.097493889702	198
23	8580	177.531193360103	199
23	8587	177.879064054203	200
23	8599	177.951545335884	199
23	8627	178.879064054203	200
23	8636	178.951545335884	199
23	8664	179.879064054203	200
23	8673	179.951545335884	199
23	8690	180.305947981683	200
23	8693	180.426406249452	201
23	8701	180.879064054203	202
23	8710	180.951545335884	201
23	8743	181.624557637296	202
23	8752	181.689241242441	203
23	8758	181.836873125672	204
23	8762	181.879064054203	205
23	8771	181.951545335884	204
23	8788	182.138828129161	205
23	8808	182.879064054203	206
23	8820	182.951545335884	205
23	8857	183.879064054203	206
23	8866	183.951545335884	205
23	8889	184.187411285758	206
23	8900	184.879064054203	207
23	8909	184.951545335884	206
23	8937	185.879064054203	207
23	8946	185.951545335884	206
23	8983	186.879064054203	207
23	8997	186.933663155982	208
23	8998	186.951545335884	207
23	9035	187.879064054203	208
23	9047	187.951545335884	207
23	9057	188.00299421435	208
23	9083	188.873074124717	209
23	9090	188.879064054203	210
23	9102	188.951545335884	209
23	9142	189.879064054203	210
23	9154	189.951545335884	209
23	9190	190.836197414274	210
23	9197	190.879064054203	211
23	9206	190.951545335884	210
23	9230	191.497277215104	211
23	9239	191.765500308375	212
23	9246	191.879064054203	213
23	9255	191.951545335884	212
23	9285	192.878364119987	213
23	9289	192.879064054203	214
23	9301	192.951545335884	213
23	9341	193.879064054203	214
23	9344	193.897759308055	215
23	9359	193.951545335884	214
23	9390	194.879064054203	215
23	9393	194.879544213655	216
23	9402	194.951545335884	215
23	9438	195.649406149469	216
23	9448	195.879064054203	217
23	9457	195.951545335884	216
23	9467	195.979512843523	217
23	9470	196.009920837287	218
23	9496	196.834492560466	219
23	9500	196.879064054203	220
23	9514	196.923578517957	221
23	9515	196.951545335884	220
23	9555	197.879064054203	221
23	9564	197.951545335884	220
23	9577	198.019228388206	221
23	9580	198.048853140503	222
23	9583	198.050061442381	223
23	9600	198.815600524655	224
23	9604	198.879064054203	225
23	9613	198.951545335884	224
23	9641	199.879064054203	225
23	9650	199.951545335884	224

