file 277157 1658004414                                          
version 2
run General-0-20220716-17:46:26-1553
attr configname General
attr datetime 20220716-17:46:26
attr experiment General
attr inifile omnetpp.ini
attr iterationvars ""
attr iterationvarsf ""
attr measurement ""
attr network Network
attr processid 1553
attr repetition 0
attr replication #0
attr resultdir results
attr runnumber 0
attr seedset 0
param Network.node[{0,1,2,3,4,6,7}].app.interArrivalTime exponential(1)
param Network.node[{0,1,2,3,4,6,7}].app.packetByteSize 125000
param Network.node[{0,1,2,3,4,6,7}].app.destination 5

vector 0 Network.node[7].net packetHops ETV
vector 1 Network.node[7].net Delay_per_node ETV
vector 2 Network.node[7].lnk[0] "Buffer Size" ETV
vector 3 Network.node[6].net packetHops ETV
vector 4 Network.node[6].net Delay_per_node ETV
vector 5 Network.node[6].lnk[0] "Buffer Size" ETV
vector 6 Network.node[0].net packetHops ETV
vector 7 Network.node[0].net Delay_per_node ETV
vector 8 Network.node[0].lnk[0] "Buffer Size" ETV
vector 9 Network.node[4].net packetHops ETV
vector 10 Network.node[4].net Delay_per_node ETV
vector 11 Network.node[4].lnk[0] "Buffer Size" ETV
vector 12 Network.node[5].net packetHops ETV
vector 13 Network.node[5].net Delay_per_node ETV
vector 14 Network.node[5].app Delay_destine_node ETV
vector 15 Network.node[1].net packetHops ETV
vector 16 Network.node[1].net Delay_per_node ETV
vector 17 Network.node[1].lnk[0] "Buffer Size" ETV
vector 18 Network.node[3].net packetHops ETV
vector 19 Network.node[3].net Delay_per_node ETV
vector 20 Network.node[3].lnk[0] "Buffer Size" ETV
vector 21 Network.node[2].net packetHops ETV
vector 22 Network.node[2].net Delay_per_node ETV
vector 23 Network.node[2].lnk[0] "Buffer Size" ETV
0	1692 10248 2 9645 0.353159139138 199.898660388484 405 0 6 575 1925
1	11940 12987 2 9645 0.353159139138 199.898660388484 405 0 178.11653429191 12641.706313642 1123680.4506677
2	24927 16182 3 9646 0.353159139138 199.898660388484 605 0 205 60519 8287239
3	41109 9197 6 9648 0.485128163722 199.898760388484 364 0 7 597 2137
4	50306 11919 6 9648 0.485128163722 199.898760388484 364 0 186.7926367291 12970.483832464 1201822.6796177
5	62225 15018 7 9649 0.485128163722 199.898760388484 564 0 164 46382 5122782
6	77243 10171 13 9656 0.898560388484 199.951745335884 402 0 5 557 1769
7	87414 12887 13 9656 0.898560388484 199.951745335884 402 0 176.36007814733 12997.633874112 1201373.0937107
8	100301 16112 14 9657 0.898560388484 199.951745335884 602 0 202 59493 8082117
9	116413 4909 17 9636 0.977006426393 199.612436582109 195 0 0 0 0
10	121322 5104 17 9636 0.977006426393 199.612436582109 195 0 0 0 0
11	126426 9958 18 9637 0.977006426393 199.612436582109 380 0 11 1180 6226
12	136384 5242 32 9633 1.485228163722 199.485228163722 199 2 8 609 2217
13	141626 7980 32 9633 1.485228163722 199.485228163722 199 1.0001 184.2298320045 12842.037911981 1213974.2639321
14	149606 7980 33 9634 1.485228163722 199.485228163722 199 1.0001 184.2298320045 12842.037911981 1213974.2639321
15	157586 10346 35 9659 1.859604212075 199.998596976994 394 0 4 536 1582
16	167932 13062 35 9659 1.859604212075 199.998596976994 394 0 158.97658011254 13139.301247227 1204066.4372612
17	180994 16452 36 9660 1.859604212075 199.998596976994 593 0 195 57855 7538333
18	197446 9695 42 9629 1.878964054203 199.457914070233 371 0 2 368 736
19	207141 11923 42 9629 1.878964054203 199.457914070233 371 0 8.939994094956 685.80065768426 3445.6547363945
20	219064 15763 43 9638 1.878964054203 199.878964054203 570 0 173 53625 6465517
21	234827 11141 51 9640 1.951545335884 199.879064054203 423 0 3 483 1227
22	245968 13874 51 9640 1.951545335884 199.879064054203 423 0 107.94905889057 10879.586860518 776269.19585023
23	259842 17314 52 9650 1.951545335884 199.951545335884 622 0 225 69651 10404023

