version 2
run General-0-20220716-17:30:13-1953
attr configname General
attr datetime 20220716-17:30:13
attr experiment General
attr inifile omnetpp.ini
attr iterationvars ""
attr iterationvarsf ""
attr measurement ""
attr network Network
attr processid 1953
attr repetition 0
attr replication #0
attr resultdir results
attr runnumber 0
attr seedset 0
param Network.node[0].app.interArrivalTime exponential(1)
param Network.node[0].app.packetByteSize 125000
param Network.node[0].app.destination 5
param Network.node[2].app.interArrivalTime exponential(1)
param Network.node[2].app.packetByteSize 125000
param Network.node[2].app.destination 5

vector 0 Network.node[0].net packetHops ETV
vector 1 Network.node[0].net Delay_per_node ETV
vector 2 Network.node[0].lnk[0] "Buffer Size" ETV
vector 3 Network.node[2].net packetHops ETV
vector 4 Network.node[2].net Delay_per_node ETV
vector 5 Network.node[2].lnk[0] "Buffer Size" ETV
vector 6 Network.node[7].net packetHops ETV
vector 7 Network.node[7].net Delay_per_node ETV
vector 8 Network.node[7].lnk[0] "Buffer Size" ETV
vector 9 Network.node[1].net packetHops ETV
vector 10 Network.node[1].net Delay_per_node ETV
vector 11 Network.node[1].lnk[0] "Buffer Size" ETV
vector 12 Network.node[6].net packetHops ETV
vector 13 Network.node[6].net Delay_per_node ETV
vector 14 Network.node[6].lnk[0] "Buffer Size" ETV
vector 15 Network.node[5].net packetHops ETV
vector 16 Network.node[5].net Delay_per_node ETV
vector 17 Network.node[5].app Delay_destine_node ETV
0	2	0.898560388484	0
0	6	1.821783519955	0
0	36	3.773328855839	0
0	46	3.859804212075	3
0	58	4.324377342509	0
0	71	4.859804212075	3
0	78	5.301383768902	0
0	100	5.786511932624	0
0	106	6.139671071762	0
0	109	6.198055740855	0
0	113	6.52596940626	3
0	141	7.564128706924	3
0	163	8.564128706924	3
0	191	9.512968020783	0
0	217	10.363172325843	3
0	234	11.081864138406	0
0	243	11.363172325843	3
0	263	11.834538251719	0
0	275	12.363172325843	3
0	281	12.673971104619	0
0	304	13.363172325843	3
0	327	14.363172325843	3
0	330	14.482340368894	0
0	333	14.556025724359	0
0	350	14.967603720602	0
0	353	15.058764746726	0
0	368	15.363172325843	3
0	388	16.103377255034	0
0	397	16.363172325843	3
0	420	17.363172325843	3
0	446	18.363172325843	3
0	469	19.25354718371	0
0	478	19.363172325843	3
0	501	20.363172325843	3
0	521	21.294439399622	0
0	530	21.363172325843	3
0	547	21.9361485723	0
0	556	22.363172325843	3
0	574	23.363172325843	3
0	577	23.541388129362	0
0	612	25.155390204255	0
0	632	25.890354625445	0
0	654	27.026293567155	0
0	663	27.047509410774	3
0	666	27.152167976593	0
0	688	28.047509410774	3
0	700	28.427395678817	0
0	703	28.582125359317	0
0	724	29.182974844391	3
0	732	29.352960017784	0
0	755	30.20440671874	3
0	772	30.774324697878	0
0	776	31.20440671874	3
0	779	31.512151989634	0
0	782	31.624098150267	0
0	803	32.159663870495	0
0	806	32.466944222648	0
0	812	32.673147504678	0
0	854	33.971148391769	3
0	857	34.008437689302	0
0	867	34.617520112485	0
0	870	34.762798139777	0
0	887	34.781766708978	0
0	891	34.971148391769	3
0	899	35.173537519655	0
0	928	36.101097919552	3
0	931	36.134918458721	0
0	937	36.386360390796	0
0	954	36.874917440104	0
0	963	37.101097919552	3
0	989	38.101097919552	3
0	1012	39.101097919552	3
0	1018	39.752832461382	0
0	1041	40.101097919552	3
0	1044	40.3505785382	0
0	1064	40.796097033251	0
0	1073	41.101097919552	3
0	1076	41.370629439992	0
0	1102	42.101097919552	3
0	1134	43.101097919552	3
0	1137	43.696980501686	0
0	1160	44.101097919552	3
0	1177	44.795892969237	0
0	1186	45.101097919552	3
0	1203	45.854727100725	0
0	1212	46.101097919552	3
0	1239	46.965324546412	0
0	1243	47.101097919552	3
0	1246	47.10335323484	0
0	1274	48.492395924631	0
0	1283	48.540707172454	3
0	1303	48.944497984856	0
0	1318	49.540707172454	3
0	1338	49.788925778384	0
0	1347	50.540707172454	3
0	1373	51.540707172454	3
0	1396	52.540707172454	3
0	1419	53.540707172454	3
0	1442	54.24342262456	0
0	1445	54.477724143336	0
0	1454	54.540707172454	3
0	1477	55.485743388756	0
0	1486	55.540707172454	3
0	1509	56.540707172454	3
0	1512	56.54448610385	0
0	1529	57.416401957476	0
0	1538	57.540707172454	3
0	1541	57.708482490743	0
0	1558	58.243547167826	0
0	1567	58.540707172454	3
0	1584	58.871488748817	0
0	1587	59.51526975042	0
0	1596	59.540707172454	3
0	1613	59.795546758899	0
0	1622	60.540707172454	3
0	1629	60.77241083297	0
0	1652	61.184912062892	0
0	1656	61.540707172454	3
0	1681	62.252984260042	0
0	1684	62.401696529294	0
0	1696	62.632680586152	3
0	1722	63.632680586152	3
0	1739	63.908331862567	0
0	1742	64.368345820307	0
0	1751	64.632680586152	3
0	1768	65.454615201185	0
0	1777	65.632680586152	3
0	1809	66.632680586152	3
0	1829	67.174946858902	0
0	1838	67.632680586152	3
0	1855	68.294761224656	0
0	1858	68.395795999965	0
0	1870	68.632680586152	3
0	1893	69.632680586152	3
0	1916	70.632680586152	3
0	1939	71.632680586152	3
0	1956	71.969384372309	0
0	1964	72.632680586152	3
0	2006	74.074705673101	0
0	2009	74.132032599525	0
0	2018	74.293319858336	3
0	2035	75.060511096426	0
0	2044	75.293319858336	3
0	2047	75.660457983067	0
0	2065	76.293319858336	3
0	2082	77.004703255219	0
0	2085	77.024893383365	0
0	2088	77.064869682423	0
0	2095	77.64774807129	0
0	2152	79.400167332569	3
0	2178	80.400167332569	3
0	2207	81.400167332569	3
0	2210	81.539318194135	0
0	2227	82.074202569892	0
0	2236	82.400167332569	3
0	2265	83.400167332569	3
0	2291	84.400167332569	3
0	2294	84.578114352977	0
0	2320	85.400167332569	3
0	2323	85.410957869043	0
0	2352	86.400167332569	3
0	2381	87.400167332569	3
0	2384	87.41419839155	0
0	2387	87.512848699968	0
0	2410	88.400167332569	3
0	2433	89.400167332569	3
0	2453	90.053153207927	0
0	2456	90.139923690267	0
0	2465	90.400167332569	3
0	2500	91.400167332569	3
0	2526	92.400167332569	3
0	2543	92.789179618943	0
0	2546	92.930510332504	0
0	2555	93.400167332569	3
0	2572	93.972290986683	0
0	2584	94.400167332569	3
0	2601	95.232224796792	0
0	2610	95.400167332569	3
0	2613	95.573878963818	0
0	2630	95.88139668758	0
0	2636	96.083747126147	0
0	2645	96.400167332569	3
0	2665	96.966876168106	0
0	2668	96.987188626902	0
0	2671	97.167440878887	0
0	2683	97.400167332569	3
0	2715	98.400167332569	3
0	2732	98.9331819513	0
0	2744	99.400167332569	3
0	2764	99.776264983448	0
0	2773	100.400167332569	3
0	2796	101.105022857198	0
0	2805	101.400167332569	3
0	2808	101.672927010678	0
0	2825	101.958947983186	0
0	2834	102.400167332569	3
0	2851	103.36997239248	0
0	2860	103.400167332569	3
0	2877	104.228365360309	0
0	2889	104.400167332569	3
0	2892	104.732709166897	0
0	2918	105.400167332569	3
0	2944	106.400167332569	3
0	2961	106.996442742758	0
0	2967	107.248862735649	0
0	2976	107.400167332569	3
0	2999	108.400167332569	3
0	3025	109.400167332569	3
0	3042	110.301144392533	0
0	3054	110.400167332569	3
0	3071	110.893768419985	0
0	3083	111.400167332569	3
0	3106	112.400167332569	3
0	3109	112.767228299842	0
0	3132	113.400167332569	3
0	3149	113.969466867089	0
0	3152	114.092993514451	0
0	3161	114.400167332569	3
0	3164	114.446013647725	0
0	3190	115.400167332569	3
0	3207	115.902832206289	0
0	3216	116.400167332569	3
0	3219	116.433554702906	0
0	3239	116.938573450661	0
0	3248	117.400167332569	3
0	3277	118.400167332569	3
0	3297	119.068072846729	0
0	3309	119.400167332569	3
0	3332	120.400167332569	3
0	3349	121.202903296712	0
0	3358	121.400167332569	3
0	3375	122.382286230357	0
0	3384	122.400167332569	3
0	3404	123.270147640794	0
0	3413	123.400167332569	3
0	3433	124.34798252493	0
0	3442	124.400167332569	3
0	3462	125.109850296226	0
0	3465	125.371907537901	0
0	3474	125.400167332569	3
0	3497	126.400167332569	3
0	3500	126.404704548546	0
0	3517	126.907015346807	0
0	3526	127.400167332569	3
0	3529	127.458411336941	0
0	3551	128.400167332569	3
0	3554	128.422864902435	0
0	3582	129.066969610758	0
0	3588	129.425896826628	0
0	3597	129.649252527223	3
0	3617	130.505217025284	0
0	3626	130.649252527223	3
0	3646	130.847816649982	0
0	3658	131.649252527223	3
0	3675	131.810191705753	0
0	3678	132.370152775827	0
0	3687	132.649252527223	3
0	3725	133.649252527223	3
0	3745	134.477600380777	0
0	3754	134.649252527223	3
0	3774	135.371329459083	0
0	3789	135.649252527223	3
0	3806	136.225409194726	0
0	3818	136.649252527223	3
0	3844	137.649252527223	3
0	3873	138.649252527223	3
0	3899	139.649252527223	3
0	3902	139.697944674008	0
0	3919	139.850238299262	0
0	3922	140.30841118322	0
0	3925	140.410731798073	0
0	3934	140.649252527223	3
0	3951	140.983193349501	0
0	3963	141.649252527223	3
0	3986	142.649252527223	3
0	4015	143.649252527223	3
0	4038	144.649252527223	3
0	4055	145.121003110011	0
0	4067	145.649252527223	3
0	4084	145.891079969557	0
0	4087	146.485153467881	0
0	4093	146.59076611151	0
0	4105	146.649252527223	3
0	4131	147.649252527223	3
0	4157	148.649252527223	3
0	4177	149.110048241593	0
0	4186	149.649252527223	3
0	4209	150.649252527223	3
0	4226	150.94978102667	0
0	4229	151.111651113382	0
0	4238	151.649252527223	3
0	4261	152.649252527223	3
0	4278	153.461828403133	0
0	4287	153.649252527223	3
0	4310	154.649252527223	3
0	4327	155.487737220236	0
0	4330	155.526020133121	0
0	4339	155.649252527223	3
0	4345	155.703345708266	0
0	4374	156.649252527223	3
0	4377	156.659312132188	0
0	4403	157.649252527223	3
0	4420	158.169135587797	0
0	4432	158.649252527223	3
0	4455	159.649252527223	3
0	4472	160.171122083323	0
0	4484	160.649252527223	3
0	4487	160.70112496146	0
0	4504	160.851915971654	0
0	4516	161.374786001742	0
0	4525	161.649252527223	3
0	4542	162.570224568024	0
0	4551	162.649252527223	3
0	4568	163.037497134434	0
0	4571	163.641796206282	0
0	4580	163.649252527223	3
0	4597	164.186653334427	0
0	4606	164.649252527223	3
0	4629	165.466987538239	0
0	4638	165.649252527223	3
0	4655	165.921899383031	0
0	4664	166.649252527223	3
0	4693	167.649252527223	3
0	4716	168.649252527223	3
0	4742	169.631859974935	0
0	4751	169.649252527223	3
0	4768	170.078112795454	0
0	4777	170.649252527223	3
0	4803	171.649252527223	3
0	4829	172.649252527223	3
0	4846	172.962724547556	0
0	4849	173.151019522775	0
0	4852	173.565632065434	0
0	4861	173.649252527223	3
0	4881	174.301763165421	0
0	4887	174.35763321831	0
0	4890	174.580772426411	0
0	4899	174.649252527223	3
0	4922	174.77860193387	0
0	4937	175.649252527223	3
0	4957	176.357014655976	0
0	4966	176.649252527223	3
0	4983	176.780671757333	0
0	4992	177.649252527223	3
0	5018	178.649252527223	3
0	5041	179.649252527223	3
0	5044	179.66521604574	0
0	5064	180.602354763463	0
0	5073	180.649252527223	3
0	5090	181.510318790788	0
0	5093	181.542675595433	0
0	5102	181.649252527223	3
0	5134	182.649252527223	3
0	5151	183.0735068217	0
0	5154	183.125189727495	0
0	5166	183.649252527223	3
0	5183	183.986113364176	0
0	5186	184.257781434518	0
0	5195	184.649252527223	3
0	5221	185.649252527223	3
0	5244	186.649252527223	3
0	5270	187.649252527223	3
0	5296	188.649252527223	3
0	5316	189.136914322512	0
0	5325	189.649252527223	3
0	5342	189.903993977084	0
0	5354	190.649252527223	3
0	5380	191.649252527223	3
0	5397	191.901165944574	0
0	5409	192.649252527223	3
0	5426	193.210951315936	0
0	5429	193.584837811839	0
0	5438	193.649252527223	3
0	5455	194.392817865238	0
0	5464	194.649252527223	3
0	5481	194.900682987925	0
0	5484	195.139435860773	0
0	5487	195.374960434192	0
0	5493	195.626559047305	0
0	5502	195.649252527223	3
0	5522	195.873418316104	0
0	5531	196.649252527223	3
0	5534	196.716397091518	0
0	5557	197.649252527223	3
0	5574	198.061744524752	0
0	5582	198.649252527223	3
0	5585	198.663423511276	0
1	2	0.898560388484	0
1	6	1.821783519955	0
1	36	3.773328855839	0
1	46	3.859804212075	2.0002
1	58	4.324377342509	0
1	71	4.859804212075	2.212998860018
1	78	5.301383768902	0
1	100	5.786511932624	0
1	106	6.139671071762	0
1	109	6.198055740855	0
1	113	6.52596940626	2.0002
1	141	7.564128706924	2.0002
1	163	8.564128706924	2.424680803117
1	191	9.512968020783	0
1	217	10.363172325843	2.0002
1	234	11.081864138406	0
1	243	11.363172325843	2.681843859158
1	263	11.834538251719	0
1	275	12.363172325843	3.19824175421
1	281	12.673971104619	0
1	304	13.363172325843	3.548795405959
1	327	14.363172325843	2.876584205634
1	330	14.482340368894	0
1	333	14.556025724359	0
1	350	14.967603720602	0
1	353	15.058764746726	0
1	368	15.363172325843	3.222701638413
1	388	16.103377255034	0
1	397	16.363172325843	3.723829629397
1	420	17.363172325843	2.125575543548
1	446	18.363172325843	3.105149955149
1	469	19.25354718371	0
1	478	19.363172325843	3.645901817894
1	501	20.363172325843	2.858414154455
1	521	21.294439399622	0
1	530	21.363172325843	2.352629895818
1	547	21.9361485723	0
1	556	22.363172325843	3.201399042153
1	574	23.363172325843	2.161084784211
1	577	23.541388129362	0
1	612	25.155390204255	0
1	632	25.890354625445	0
1	654	27.026293567155	0
1	663	27.047509410774	2.0002
1	666	27.152167976593	0
1	688	28.047509410774	2.381270540373
1	700	28.427395678817	0
1	703	28.582125359317	0
1	724	29.182974844391	2.0002
1	732	29.352960017784	0
1	755	30.20440671874	2.0002
1	772	30.774324697878	0
1	776	31.20440671874	2.127878804958
1	779	31.512151989634	0
1	782	31.624098150267	0
1	803	32.159663870495	0
1	806	32.466944222648	0
1	812	32.673147504678	0
1	854	33.971148391769	2.0002
1	857	34.008437689302	0
1	867	34.617520112485	0
1	870	34.762798139777	0
1	887	34.781766708978	0
1	891	34.971148391769	2.358505297969
1	899	35.173537519655	0
1	928	36.101097919552	2.0002
1	931	36.134918458721	0
1	937	36.386360390796	0
1	954	36.874917440104	0
1	963	37.101097919552	2.756151509263
1	989	38.101097919552	2.915816803651
1	1012	39.101097919552	3.753680314205
1	1018	39.752832461382	0
1	1041	40.101097919552	3.80668363703
1	1044	40.3505785382	0
1	1064	40.796097033251	0
1	1073	41.101097919552	3.847135659662
1	1076	41.370629439992	0
1	1102	42.101097919552	2.518222285448
1	1134	43.101097919552	2.373083330748
1	1137	43.696980501686	0
1	1160	44.101097919552	2.423588747251
1	1177	44.795892969237	0
1	1186	45.101097919552	2.227480947794
1	1203	45.854727100725	0
1	1212	46.101097919552	3.122919722019
1	1239	46.965324546412	0
1	1243	47.101097919552	4.060804431553
1	1246	47.10335323484	0
1	1274	48.492395924631	0
1	1283	48.540707172454	2.0002
1	1303	48.944497984856	0
1	1318	49.540707172454	2.812773933982
1	1338	49.788925778384	0
1	1347	50.540707172454	3.576567227899
1	1373	51.540707172454	4.133163199278
1	1396	52.540707172454	4.754201234995
1	1419	53.540707172454	4.818139675224
1	1442	54.24342262456	0
1	1445	54.477724143336	0
1	1454	54.540707172454	5.42502711792
1	1477	55.485743388756	0
1	1486	55.540707172454	6.385843961507
1	1509	56.540707172454	6.8085196507
1	1512	56.54448610385	0
1	1529	57.416401957476	0
1	1538	57.540707172454	6.802648645533
1	1541	57.708482490743	0
1	1558	58.243547167826	0
1	1567	58.540707172454	4.609702003479
1	1584	58.871488748817	0
1	1587	59.51526975042	0
1	1596	59.540707172454	5.502066895323
1	1613	59.795546758899	0
1	1622	60.540707172454	5.444240481971
1	1629	60.77241083297	0
1	1652	61.184912062892	0
1	1656	61.540707172454	6.268326936545
1	1681	62.252984260042	0
1	1684	62.401696529294	0
1	1696	62.632680586152	2.0002
1	1722	63.632680586152	2.827072543854
1	1739	63.908331862567	0
1	1742	64.368345820307	0
1	1751	64.632680586152	3.710117134062
1	1768	65.454615201185	0
1	1777	65.632680586152	3.586948832529
1	1809	66.632680586152	4.205392989155
1	1829	67.174946858902	0
1	1838	67.632680586152	4.986512392648
1	1855	68.294761224656	0
1	1858	68.395795999965	0
1	1870	68.632680586152	2.999322500796
1	1893	69.632680586152	3.985657922365
1	1916	70.632680586152	4.88351304084
1	1939	71.632680586152	4.908411106684
1	1956	71.969384372309	0
1	1964	72.632680586152	4.0885921874
1	2006	74.074705673101	0
1	2009	74.132032599525	0
1	2018	74.293319858336	2.0002
1	2035	75.060511096426	0
1	2044	75.293319858336	2.367863403604
1	2047	75.660457983067	0
1	2065	76.293319858336	2.655279810271
1	2082	77.004703255219	0
1	2085	77.024893383365	0
1	2088	77.064869682423	0
1	2095	77.64774807129	0
1	2152	79.400167332569	2.0002
1	2178	80.400167332569	2.667789759036
1	2207	81.400167332569	3.539732993725
1	2210	81.539318194135	0
1	2227	82.074202569892	0
1	2236	82.400167332569	4.094313531805
1	2265	83.400167332569	4.743137442424
1	2291	84.400167332569	5.08749115806
1	2294	84.578114352977	0
1	2320	85.400167332569	5.961102521635
1	2323	85.410957869043	0
1	2352	86.400167332569	5.794228995086
1	2381	87.400167332569	6.411528046224
1	2384	87.41419839155	0
1	2387	87.512848699968	0
1	2410	88.400167332569	5.287290849222
1	2433	89.400167332569	6.22099344774
1	2453	90.053153207927	0
1	2456	90.139923690267	0
1	2465	90.400167332569	6.976597999658
1	2500	91.400167332569	6.797408472593
1	2526	92.400167332569	6.961310940623
1	2543	92.789179618943	0
1	2546	92.930510332504	0
1	2555	93.400167332569	7.652896100525
1	2572	93.972290986683	0
1	2584	94.400167332569	7.941648163308
1	2601	95.232224796792	0
1	2610	95.400167332569	8.200889212861
1	2613	95.573878963818	0
1	2630	95.88139668758	0
1	2636	96.083747126147	0
1	2645	96.400167332569	6.715306855884
1	2665	96.966876168106	0
1	2668	96.987188626902	0
1	2671	97.167440878887	0
1	2683	97.400167332569	6.85741121481
1	2715	98.400167332569	7.532070799281
1	2732	98.9331819513	0
1	2744	99.400167332569	8.148510585182
1	2764	99.776264983448	0
1	2773	100.400167332569	9.139109834518
1	2796	101.105022857198	0
1	2805	101.400167332569	9.038263924427
1	2808	101.672927010678	0
1	2825	101.958947983186	0
1	2834	102.400167332569	8.190936273425
1	2851	103.36997239248	0
1	2860	103.400167332569	7.349653801938
1	2877	104.228365360309	0
1	2889	104.400167332569	7.842453678681
1	2892	104.732709166897	0
1	2918	105.400167332569	8.03765627888
1	2944	106.400167332569	8.575925382836
1	2961	106.996442742758	0
1	2967	107.248862735649	0
1	2976	107.400167332569	9.571218842344
1	2999	108.400167332569	10.412877336113
1	3025	109.400167332569	10.280243194141
1	3042	110.301144392533	0
1	3054	110.400167332569	10.965521533286
1	3071	110.893768419985	0
1	3083	111.400167332569	10.749012879849
1	3106	112.400167332569	11.408666141614
1	3109	112.767228299842	0
1	3132	113.400167332569	9.133522963899
1	3149	113.969466867089	0
1	3152	114.092993514451	0
1	3161	114.400167332569	9.236932093113
1	3164	114.446013647725	0
1	3190	115.400167332569	9.387711281549
1	3207	115.902832206289	0
1	3216	116.400167332569	9.36905255153
1	3219	116.433554702906	0
1	3239	116.938573450661	0
1	3248	117.400167332569	8.147545653056
1	3277	118.400167332569	8.007937689523
1	3297	119.068072846729	0
1	3309	119.400167332569	8.411558295193
1	3332	120.400167332569	5.568551711949
1	3349	121.202903296712	0
1	3358	121.400167332569	4.887629507403
1	3375	122.382286230357	0
1	3384	122.400167332569	4.762347490559
1	3404	123.270147640794	0
1	3413	123.400167332569	5.474937014489
1	3433	124.34798252493	0
1	3442	124.400167332569	5.604401188163
1	3462	125.109850296226	0
1	3465	125.371907537901	0
1	3474	125.400167332569	6.228662345756
1	3497	126.400167332569	3.864291892705
1	3500	126.404704548546	0
1	3517	126.907015346807	0
1	3526	127.400167332569	3.572382623904
1	3529	127.458411336941	0
1	3551	128.400167332569	3.876583163004
1	3554	128.422864902435	0
1	3582	129.066969610758	0
1	3588	129.425896826628	0
1	3597	129.649252527223	2.0002
1	3617	130.505217025284	0
1	3626	130.649252527223	2.067797119593
1	3646	130.847816649982	0
1	3658	131.649252527223	3.048417338245
1	3675	131.810191705753	0
1	3678	132.370152775827	0
1	3687	132.649252527223	3.413289622614
1	3725	133.649252527223	3.15424610535
1	3745	134.477600380777	0
1	3754	134.649252527223	3.814581372768
1	3774	135.371329459083	0
1	3789	135.649252527223	4.330945686179
1	3806	136.225409194726	0
1	3818	136.649252527223	3.947966479642
1	3844	137.649252527223	4.802392501194
1	3873	138.649252527223	5.693845402699
1	3899	139.649252527223	6.339621270454
1	3902	139.697944674008	0
1	3919	139.850238299262	0
1	3922	140.30841118322	0
1	3925	140.410731798073	0
1	3934	140.649252527223	7.242698515877
1	3951	140.983193349501	0
1	3963	141.649252527223	7.398810043286
1	3986	142.649252527223	7.961782029512
1	4015	143.649252527223	8.159230043753
1	4038	144.649252527223	9.125026625395
1	4055	145.121003110011	0
1	4067	145.649252527223	9.066017240014
1	4084	145.891079969557	0
1	4087	146.485153467881	0
1	4093	146.59076611151	0
1	4105	146.649252527223	9.010167631354
1	4131	147.649252527223	9.623037539205
1	4157	148.649252527223	10.058427038084
1	4177	149.110048241593	0
1	4186	149.649252527223	10.808345543106
1	4209	150.649252527223	9.539711550414
1	4226	150.94978102667	0
1	4229	151.111651113382	0
1	4238	151.649252527223	8.314796893189
1	4261	152.649252527223	9.013230979966
1	4278	153.461828403133	0
1	4287	153.649252527223	8.372333402039
1	4310	154.649252527223	8.155313906702
1	4327	155.487737220236	0
1	4330	155.526020133121	0
1	4339	155.649252527223	9.050432071102
1	4345	155.703345708266	0
1	4374	156.649252527223	9.616086415158
1	4377	156.659312132188	0
1	4403	157.649252527223	9.363478890246
1	4420	158.169135587797	0
1	4432	158.649252527223	9.730016272523
1	4455	159.649252527223	3.964625752586
1	4472	160.171122083323	0
1	4484	160.649252527223	4.254707825362
1	4487	160.70112496146	0
1	4504	160.851915971654	0
1	4516	161.374786001742	0
1	4525	161.649252527223	5.072169223479
1	4542	162.570224568024	0
1	4551	162.649252527223	5.939985513864
1	4568	163.037497134434	0
1	4571	163.641796206282	0
1	4580	163.649252527223	5.056056627278
1	4597	164.186653334427	0
1	4606	164.649252527223	4.409337525951
1	4629	165.466987538239	0
1	4638	165.649252527223	4.567456564219
1	4655	165.921899383031	0
1	4664	166.649252527223	5.533669778667
1	4693	167.649252527223	6.461994394354
1	4716	168.649252527223	3.412147555549
1	4742	169.631859974935	0
1	4751	169.649252527223	4.360235003366
1	4768	170.078112795454	0
1	4777	170.649252527223	3.34746226716
1	4803	171.649252527223	4.330694501168
1	4829	172.649252527223	3.394117263677
1	4846	172.962724547556	0
1	4849	173.151019522775	0
1	4852	173.565632065434	0
1	4861	173.649252527223	4.131787954511
1	4881	174.301763165421	0
1	4887	174.35763321831	0
1	4890	174.580772426411	0
1	4899	174.649252527223	5.120004722593
1	4922	174.77860193387	0
1	4937	175.649252527223	4.672210640605
1	4957	176.357014655976	0
1	4966	176.649252527223	4.362912276582
1	4983	176.780671757333	0
1	4992	177.649252527223	3.976620924561
1	5018	178.649252527223	4.304160407727
1	5041	179.649252527223	4.890181485054
1	5044	179.66521604574	0
1	5064	180.602354763463	0
1	5073	180.649252527223	5.871486014633
1	5090	181.510318790788	0
1	5093	181.542675595433	0
1	5102	181.649252527223	6.68396706343
1	5134	182.649252527223	7.061369719452
1	5151	183.0735068217	0
1	5154	183.125189727495	0
1	5166	183.649252527223	7.807864014309
1	5183	183.986113364176	0
1	5186	184.257781434518	0
1	5195	184.649252527223	6.731832953866
1	5221	185.649252527223	5.099614091317
1	5244	186.649252527223	4.880817287974
1	5270	187.649252527223	5.700859946422
1	5296	188.649252527223	6.007660176884
1	5316	189.136914322512	0
1	5325	189.649252527223	6.036178018789
1	5342	189.903993977084	0
1	5354	190.649252527223	5.835207112247
1	5380	191.649252527223	4.113858856334
1	5397	191.901165944574	0
1	5409	192.649252527223	4.802891051364
1	5426	193.210951315936	0
1	5429	193.584837811839	0
1	5438	193.649252527223	4.851061343822
1	5455	194.392817865238	0
1	5464	194.649252527223	4.714464848565
1	5481	194.900682987925	0
1	5484	195.139435860773	0
1	5487	195.374960434192	0
1	5493	195.626559047305	0
1	5502	195.649252527223	4.823086271655
1	5522	195.873418316104	0
1	5531	196.649252527223	4.433409207879
1	5534	196.716397091518	0
1	5557	197.649252527223	2.095474874025
1	5574	198.061744524752	0
1	5582	198.649252527223	2.889442825542
1	5585	198.663423511276	0
2	3	0.898560388484	1
2	4	0.898560388484	0
2	7	1.821783519955	1
2	12	1.898560388484	0
2	37	3.773328855839	1
2	38	3.773328855839	0
2	47	3.859804212075	1
2	59	4.324377342509	2
2	64	4.773328855839	1
2	72	4.859804212075	2
2	79	5.301383768902	3
2	89	5.773328855839	2
2	101	5.786511932624	3
2	107	6.139671071762	4
2	110	6.198055740855	5
2	114	6.52596940626	6
2	120	6.773328855839	5
2	142	7.564128706924	6
2	143	7.773328855839	5
2	164	8.564128706924	6
2	168	8.773328855839	5
2	192	9.512968020783	6
2	193	9.773328855839	5
2	218	10.363172325843	6
2	219	10.773328855839	5
2	235	11.081864138406	6
2	244	11.363172325843	7
2	248	11.773328855839	6
2	264	11.834538251719	7
2	276	12.363172325843	8
2	282	12.673971104619	9
2	283	12.773328855839	8
2	305	13.363172325843	9
2	306	13.773328855839	8
2	328	14.363172325843	9
2	331	14.482340368894	10
2	334	14.556025724359	11
2	335	14.773328855839	10
2	351	14.967603720602	11
2	354	15.058764746726	12
2	369	15.363172325843	13
2	373	15.773328855839	12
2	389	16.103377255034	13
2	398	16.363172325843	14
2	399	16.773328855839	13
2	421	17.363172325843	14
2	425	17.773328855839	13
2	447	18.363172325843	14
2	448	18.773328855839	13
2	470	19.25354718371	14
2	479	19.363172325843	15
2	480	19.773328855839	14
2	502	20.363172325843	15
2	503	20.773328855839	14
2	522	21.294439399622	15
2	531	21.363172325843	16
2	532	21.773328855839	15
2	548	21.9361485723	16
2	557	22.363172325843	17
2	558	22.773328855839	16
2	575	23.363172325843	17
2	578	23.541388129362	18
2	579	23.773328855839	17
2	593	24.773328855839	16
2	613	25.155390204255	17
2	617	25.773328855839	16
2	633	25.890354625445	17
2	639	26.773328855839	16
2	655	27.026293567155	17
2	664	27.047509410774	18
2	667	27.152167976593	19
2	672	27.773328855839	18
2	689	28.047509410774	19
2	701	28.427395678817	20
2	704	28.582125359317	21
2	705	28.773328855839	20
2	725	29.182974844391	21
2	733	29.352960017784	22
2	734	29.773328855839	21
2	756	30.20440671874	22
2	757	30.773328855839	21
2	773	30.774324697878	22
2	777	31.20440671874	23
2	780	31.512151989634	24
2	783	31.624098150267	25
2	784	31.773328855839	24
2	804	32.159663870495	25
2	807	32.466944222648	26
2	813	32.673147504678	27
2	814	32.773328855839	26
2	833	33.773328855839	25
2	855	33.971148391769	26
2	858	34.008437689302	27
2	868	34.617520112485	28
2	871	34.762798139777	29
2	872	34.773328855839	28
2	888	34.781766708978	29
2	892	34.971148391769	30
2	900	35.173537519655	31
2	907	35.773328855839	30
2	929	36.101097919552	31
2	932	36.134918458721	32
2	938	36.386360390796	33
2	939	36.773328855839	32
2	955	36.874917440104	33
2	964	37.101097919552	34
2	968	37.773328855839	33
2	990	38.101097919552	34
2	991	38.773328855839	33
2	1013	39.101097919552	34
2	1019	39.752832461382	35
2	1020	39.773328855839	34
2	1042	40.101097919552	35
2	1045	40.3505785382	36
2	1049	40.773328855839	35
2	1065	40.796097033251	36
2	1074	41.101097919552	37
2	1077	41.370629439992	38
2	1081	41.773328855839	37
2	1103	42.101097919552	38
2	1104	42.773328855839	37
2	1135	43.101097919552	38
2	1138	43.696980501686	39
2	1139	43.773328855839	38
2	1161	44.101097919552	39
2	1162	44.773328855839	38
2	1178	44.795892969237	39
2	1187	45.101097919552	40
2	1188	45.773328855839	39
2	1204	45.854727100725	40
2	1213	46.101097919552	41
2	1221	46.773328855839	40
2	1240	46.965324546412	41
2	1244	47.101097919552	42
2	1247	47.10335323484	43
2	1256	47.773328855839	42
2	1275	48.492395924631	43
2	1284	48.540707172454	44
2	1288	48.773328855839	43
2	1304	48.944497984856	44
2	1319	49.540707172454	45
2	1323	49.773328855839	44
2	1339	49.788925778384	45
2	1348	50.540707172454	46
2	1352	50.773328855839	45
2	1374	51.540707172454	46
2	1375	51.773328855839	45
2	1397	52.540707172454	46
2	1398	52.773328855839	45
2	1420	53.540707172454	46
2	1421	53.773328855839	45
2	1443	54.24342262456	46
2	1446	54.477724143336	47
2	1455	54.540707172454	48
2	1456	54.773328855839	47
2	1478	55.485743388756	48
2	1487	55.540707172454	49
2	1488	55.773328855839	48
2	1510	56.540707172454	49
2	1513	56.54448610385	50
2	1514	56.773328855839	49
2	1530	57.416401957476	50
2	1539	57.540707172454	51
2	1542	57.708482490743	52
2	1543	57.773328855839	51
2	1559	58.243547167826	52
2	1568	58.540707172454	53
2	1569	58.773328855839	52
2	1585	58.871488748817	53
2	1588	59.51526975042	54
2	1597	59.540707172454	55
2	1598	59.773328855839	54
2	1614	59.795546758899	55
2	1623	60.540707172454	56
2	1630	60.77241083297	57
2	1631	60.773328855839	56
2	1653	61.184912062892	57
2	1657	61.540707172454	58
2	1663	61.773328855839	57
2	1682	62.252984260042	58
2	1685	62.401696529294	59
2	1697	62.632680586152	60
2	1701	62.773328855839	59
2	1723	63.632680586152	60
2	1724	63.773328855839	59
2	1740	63.908331862567	60
2	1743	64.368345820307	61
2	1752	64.632680586152	62
2	1753	64.773328855839	61
2	1769	65.454615201185	62
2	1778	65.632680586152	63
2	1788	65.773328855839	62
2	1810	66.632680586152	63
2	1814	66.773328855839	62
2	1830	67.174946858902	63
2	1839	67.632680586152	64
2	1840	67.773328855839	63
2	1856	68.294761224656	64
2	1859	68.395795999965	65
2	1871	68.632680586152	66
2	1872	68.773328855839	65
2	1894	69.632680586152	66
2	1895	69.773328855839	65
2	1917	70.632680586152	66
2	1918	70.773328855839	65
2	1940	71.632680586152	66
2	1941	71.773328855839	65
2	1957	71.969384372309	66
2	1965	72.632680586152	67
2	1966	72.773328855839	66
2	1991	73.773328855839	65
2	2007	74.074705673101	66
2	2010	74.132032599525	67
2	2019	74.293319858336	68
2	2020	74.773328855839	67
2	2036	75.060511096426	68
2	2045	75.293319858336	69
2	2048	75.660457983067	70
2	2049	75.773328855839	69
2	2066	76.293319858336	70
2	2067	76.773328855839	69
2	2083	77.004703255219	70
2	2086	77.024893383365	71
2	2089	77.064869682423	72
2	2096	77.64774807129	73
2	2100	77.773328855839	72
2	2128	78.773328855839	71
2	2153	79.400167332569	72
2	2157	79.773328855839	71
2	2179	80.400167332569	72
2	2183	80.773328855839	71
2	2208	81.400167332569	72
2	2211	81.539318194135	73
2	2212	81.773328855839	72
2	2228	82.074202569892	73
2	2237	82.400167332569	74
2	2238	82.773328855839	73
2	2266	83.400167332569	74
2	2270	83.773328855839	73
2	2292	84.400167332569	74
2	2295	84.578114352977	75
2	2299	84.773328855839	74
2	2321	85.400167332569	75
2	2324	85.410957869043	76
2	2331	85.773328855839	75
2	2353	86.400167332569	76
2	2357	86.773328855839	75
2	2382	87.400167332569	76
2	2385	87.41419839155	77
2	2388	87.512848699968	78
2	2389	87.773328855839	77
2	2411	88.400167332569	78
2	2412	88.773328855839	77
2	2434	89.400167332569	78
2	2438	89.773328855839	77
2	2454	90.053153207927	78
2	2457	90.139923690267	79
2	2466	90.400167332569	80
2	2470	90.773328855839	79
2	2501	91.400167332569	80
2	2502	91.773328855839	79
2	2527	92.400167332569	80
2	2528	92.773328855839	79
2	2544	92.789179618943	80
2	2547	92.930510332504	81
2	2556	93.400167332569	82
2	2557	93.773328855839	81
2	2573	93.972290986683	82
2	2585	94.400167332569	83
2	2586	94.773328855839	82
2	2602	95.232224796792	83
2	2611	95.400167332569	84
2	2614	95.573878963818	85
2	2615	95.773328855839	84
2	2631	95.88139668758	85
2	2637	96.083747126147	86
2	2646	96.400167332569	87
2	2650	96.773328855839	86
2	2666	96.966876168106	87
2	2669	96.987188626902	88
2	2672	97.167440878887	89
2	2684	97.400167332569	90
2	2685	97.773328855839	89
2	2716	98.400167332569	90
2	2717	98.773328855839	89
2	2733	98.9331819513	90
2	2745	99.400167332569	91
2	2749	99.773328855839	90
2	2765	99.776264983448	91
2	2774	100.400167332569	92
2	2778	100.773328855839	91
2	2797	101.105022857198	92
2	2806	101.400167332569	93
2	2809	101.672927010678	94
2	2810	101.773328855839	93
2	2826	101.958947983186	94
2	2835	102.400167332569	95
2	2836	102.773328855839	94
2	2852	103.36997239248	95
2	2861	103.400167332569	96
2	2862	103.773328855839	95
2	2878	104.228365360309	96
2	2890	104.400167332569	97
2	2893	104.732709166897	98
2	2894	104.773328855839	97
2	2919	105.400167332569	98
2	2920	105.773328855839	97
2	2945	106.400167332569	98
2	2946	106.773328855839	97
2	2962	106.996442742758	98
2	2968	107.248862735649	99
2	2977	107.400167332569	100
2	2978	107.773328855839	99
2	3000	108.400167332569	100
2	3001	108.773328855839	99
2	3026	109.400167332569	100
2	3027	109.773328855839	99
2	3043	110.301144392533	100
2	3055	110.400167332569	101
2	3056	110.773328855839	100
2	3072	110.893768419985	101
2	3084	111.400167332569	102
2	3085	111.773328855839	101
2	3107	112.400167332569	102
2	3110	112.767228299842	103
2	3111	112.773328855839	102
2	3133	113.400167332569	103
2	3134	113.773328855839	102
2	3150	113.969466867089	103
2	3153	114.092993514451	104
2	3162	114.400167332569	105
2	3165	114.446013647725	106
2	3166	114.773328855839	105
2	3191	115.400167332569	106
2	3192	115.773328855839	105
2	3208	115.902832206289	106
2	3217	116.400167332569	107
2	3220	116.433554702906	108
2	3224	116.773328855839	107
2	3240	116.938573450661	108
2	3249	117.400167332569	109
2	3253	117.773328855839	108
2	3278	118.400167332569	109
2	3279	118.773328855839	108
2	3298	119.068072846729	109
2	3310	119.400167332569	110
2	3311	119.773328855839	109
2	3333	120.400167332569	110
2	3334	120.773328855839	109
2	3350	121.202903296712	110
2	3359	121.400167332569	111
2	3360	121.773328855839	110
2	3376	122.382286230357	111
2	3385	122.400167332569	112
2	3389	122.773328855839	111
2	3405	123.270147640794	112
2	3414	123.400167332569	113
2	3415	123.773328855839	112
2	3434	124.34798252493	113
2	3443	124.400167332569	114
2	3447	124.773328855839	113
2	3463	125.109850296226	114
2	3466	125.371907537901	115
2	3475	125.400167332569	116
2	3476	125.773328855839	115
2	3498	126.400167332569	116
2	3501	126.404704548546	117
2	3502	126.773328855839	116
2	3518	126.907015346807	117
2	3527	127.400167332569	118
2	3530	127.458411336941	119
2	3535	127.773328855839	118
2	3552	128.400167332569	119
2	3555	128.422864902435	120
2	3567	128.773328855839	119
2	3583	129.066969610758	120
2	3589	129.425896826628	121
2	3598	129.649252527223	122
2	3599	129.773328855839	121
2	3618	130.505217025284	122
2	3627	130.649252527223	123
2	3628	130.773328855839	122
2	3647	130.847816649982	123
2	3659	131.649252527223	124
2	3660	131.773328855839	123
2	3676	131.810191705753	124
2	3679	132.370152775827	125
2	3688	132.649252527223	126
2	3692	132.773328855839	125
2	3726	133.649252527223	126
2	3727	133.773328855839	125
2	3746	134.477600380777	126
2	3755	134.649252527223	127
2	3759	134.773328855839	126
2	3775	135.371329459083	127
2	3790	135.649252527223	128
2	3791	135.773328855839	127
2	3807	136.225409194726	128
2	3819	136.649252527223	129
2	3820	136.773328855839	128
2	3845	137.649252527223	129
2	3846	137.773328855839	128
2	3874	138.649252527223	129
2	3875	138.773328855839	128
2	3900	139.649252527223	129
2	3903	139.697944674008	130
2	3904	139.773328855839	129
2	3920	139.850238299262	130
2	3923	140.30841118322	131
2	3926	140.410731798073	132
2	3935	140.649252527223	133
2	3936	140.773328855839	132
2	3952	140.983193349501	133
2	3964	141.649252527223	134
2	3965	141.773328855839	133
2	3987	142.649252527223	134
2	3988	142.773328855839	133
2	4016	143.649252527223	134
2	4017	143.773328855839	133
2	4039	144.649252527223	134
2	4040	144.773328855839	133
2	4056	145.121003110011	134
2	4068	145.649252527223	135
2	4069	145.773328855839	134
2	4085	145.891079969557	135
2	4088	146.485153467881	136
2	4094	146.59076611151	137
2	4106	146.649252527223	138
2	4107	146.773328855839	137
2	4132	147.649252527223	138
2	4133	147.773328855839	137
2	4158	148.649252527223	138
2	4159	148.773328855839	137
2	4178	149.110048241593	138
2	4187	149.649252527223	139
2	4188	149.773328855839	138
2	4210	150.649252527223	139
2	4211	150.773328855839	138
2	4227	150.94978102667	139
2	4230	151.111651113382	140
2	4239	151.649252527223	141
2	4240	151.773328855839	140
2	4262	152.649252527223	141
2	4263	152.773328855839	140
2	4279	153.461828403133	141
2	4288	153.649252527223	142
2	4289	153.773328855839	141
2	4311	154.649252527223	142
2	4312	154.773328855839	141
2	4328	155.487737220236	142
2	4331	155.526020133121	143
2	4340	155.649252527223	144
2	4346	155.703345708266	145
2	4347	155.773328855839	144
2	4375	156.649252527223	145
2	4378	156.659312132188	146
2	4382	156.773328855839	145
2	4404	157.649252527223	146
2	4405	157.773328855839	145
2	4421	158.169135587797	146
2	4433	158.649252527223	147
2	4434	158.773328855839	146
2	4456	159.649252527223	147
2	4457	159.773328855839	146
2	4473	160.171122083323	147
2	4485	160.649252527223	148
2	4488	160.70112496146	149
2	4489	160.773328855839	148
2	4505	160.851915971654	149
2	4517	161.374786001742	150
2	4526	161.649252527223	151
2	4527	161.773328855839	150
2	4543	162.570224568024	151
2	4552	162.649252527223	152
2	4553	162.773328855839	151
2	4569	163.037497134434	152
2	4572	163.641796206282	153
2	4581	163.649252527223	154
2	4582	163.773328855839	153
2	4598	164.186653334427	154
2	4607	164.649252527223	155
2	4608	164.773328855839	154
2	4630	165.466987538239	155
2	4639	165.649252527223	156
2	4640	165.773328855839	155
2	4656	165.921899383031	156
2	4665	166.649252527223	157
2	4666	166.773328855839	156
2	4694	167.649252527223	157
2	4695	167.773328855839	156
2	4717	168.649252527223	157
2	4718	168.773328855839	156
2	4743	169.631859974935	157
2	4752	169.649252527223	158
2	4753	169.773328855839	157
2	4769	170.078112795454	158
2	4778	170.649252527223	159
2	4779	170.773328855839	158
2	4804	171.649252527223	159
2	4805	171.773328855839	158
2	4830	172.649252527223	159
2	4831	172.773328855839	158
2	4847	172.962724547556	159
2	4850	173.151019522775	160
2	4853	173.565632065434	161
2	4862	173.649252527223	162
2	4866	173.773328855839	161
2	4882	174.301763165421	162
2	4888	174.35763321831	163
2	4891	174.580772426411	164
2	4900	174.649252527223	165
2	4904	174.773328855839	164
2	4923	174.77860193387	165
2	4938	175.649252527223	166
2	4939	175.773328855839	165
2	4958	176.357014655976	166
2	4967	176.649252527223	167
2	4968	176.773328855839	166
2	4984	176.780671757333	167
2	4993	177.649252527223	168
2	4994	177.773328855839	167
2	5019	178.649252527223	168
2	5020	178.773328855839	167
2	5042	179.649252527223	168
2	5045	179.66521604574	169
2	5046	179.773328855839	168
2	5065	180.602354763463	169
2	5074	180.649252527223	170
2	5075	180.773328855839	169
2	5091	181.510318790788	170
2	5094	181.542675595433	171
2	5103	181.649252527223	172
2	5107	181.773328855839	171
2	5135	182.649252527223	172
2	5136	182.773328855839	171
2	5152	183.0735068217	172
2	5155	183.125189727495	173
2	5167	183.649252527223	174
2	5168	183.773328855839	173
2	5184	183.986113364176	174
2	5187	184.257781434518	175
2	5196	184.649252527223	176
2	5197	184.773328855839	175
2	5222	185.649252527223	176
2	5223	185.773328855839	175
2	5245	186.649252527223	176
2	5246	186.773328855839	175
2	5271	187.649252527223	176
2	5272	187.773328855839	175
2	5297	188.649252527223	176
2	5298	188.773328855839	175
2	5317	189.136914322512	176
2	5326	189.649252527223	177
2	5327	189.773328855839	176
2	5343	189.903993977084	177
2	5355	190.649252527223	178
2	5356	190.773328855839	177
2	5381	191.649252527223	178
2	5382	191.773328855839	177
2	5398	191.901165944574	178
2	5410	192.649252527223	179
2	5411	192.773328855839	178
2	5427	193.210951315936	179
2	5430	193.584837811839	180
2	5439	193.649252527223	181
2	5440	193.773328855839	180
2	5456	194.392817865238	181
2	5465	194.649252527223	182
2	5466	194.773328855839	181
2	5482	194.900682987925	182
2	5485	195.139435860773	183
2	5488	195.374960434192	184
2	5494	195.626559047305	185
2	5503	195.649252527223	186
2	5507	195.773328855839	185
2	5523	195.873418316104	186
2	5532	196.649252527223	187
2	5535	196.716397091518	188
2	5536	196.773328855839	187
2	5558	197.649252527223	188
2	5559	197.773328855839	187
2	5575	198.061744524752	188
2	5583	198.649252527223	189
2	5586	198.663423511276	190
2	5587	198.773328855839	189
2	5612	199.773328855839	188
3	9	1.859604212075	0
3	18	2.646805352057	0
3	61	4.52576940626	0
3	86	5.563928706924	0
3	103	6.139447903807	0
3	158	8.362972325843	0
3	166	8.681328466685	0
3	183	9.164930571633	0
3	208	9.814376919884	0
3	246	11.486588120209	0
3	266	12.14047068743	0
3	278	12.639342696446	0
3	356	15.237596782295	0
3	359	15.258022370694	0
3	371	15.717270507949	0
3	423	17.504758171388	0
3	463	19.010542430025	0
3	466	19.16177328369	0
3	518	21.202087541632	0
3	608	25.047309410774	0
3	615	25.666238870401	0
3	669	27.182774844391	0
3	696	28.20420671874	0
3	720	29.076527913782	0
3	799	31.970948391769	0
3	809	32.6126430938	0
3	860	34.100897919552	0
3	864	34.344946410289	0
3	902	35.185281115901	0
3	905	35.347417605347	0
3	934	36.294414282522	0
3	966	37.25396225989	0
3	1015	39.582875634104	0
3	1047	40.728014588804	0
3	1079	41.677509172301	0
3	1119	42.873616971758	0
3	1122	42.978178197533	0
3	1125	43.040293487999	0
3	1215	46.540507172454	0
3	1219	46.727933238472	0
3	1236	46.964139944555	0
3	1249	47.407543973176	0
3	1271	47.786505937459	0
3	1286	48.72256749723	0
3	1306	49.115680054534	0
3	1309	49.154863210947	0
3	1321	49.732187521754	0
3	1350	50.738058526921	0
3	1436	53.931005168975	0
3	1439	54.038640277131	0
3	1471	55.096466690483	0
3	1474	55.272380235909	0
3	1625	60.632480586152	0
3	1646	60.805608042298	0
3	1649	60.92256345209	0
3	1678	62.045731753623	0
3	1687	62.427287596997	0
3	1699	62.646168193504	0
3	1780	65.633358085356	0
3	1783	65.647022663787	0
3	1786	65.749167545312	0
3	1812	66.724269479468	0
3	1861	68.544088398752	0
3	1959	72.293119858336	0
3	1981	72.925456454732	0
3	1989	73.638040048065	0
3	2091	77.399967332569	0
3	2098	77.732377573533	0
3	2115	77.860434338844	0
3	2118	78.305853800764	0
3	2126	78.657029890145	0
3	2143	79.312676174509	0
3	2155	79.439064810934	0
3	2181	80.605938337483	0
3	2198	80.988639286345	0
3	2253	83.112876483347	0
3	2256	83.179173884829	0
3	2268	83.423569332911	0
3	2297	84.602758859976	0
3	2326	85.438856391946	0
3	2329	85.747271232044	0
3	2355	86.458519169261	0
3	2372	87.199278119708	0
3	2436	89.684860476685	0
3	2468	90.542756117759	0
3	2485	90.868096533288	0
3	2488	91.251656747387	0
3	2491	91.261057498051	0
3	2517	92.361903408142	0
3	2575	94.209231059144	0
3	2633	96.050513530631	0
3	2648	96.557713653888	0
3	2674	97.362511053689	0
3	2700	97.824241949733	0
3	2703	97.828948490225	0
3	2706	97.987289996456	0
3	2735	99.119924138428	0
3	2747	99.434645799283	0
3	2776	100.65115445272	0
3	2793	100.991501190955	0
3	2880	104.26664436867	0
3	2909	105.163235239456	0
3	2935	106.01245605102	0
3	2964	107.031114781039	0
3	3016	109.252621679513	0
3	3045	110.392229643046	0
3	3074	110.988609037376	0
3	3181	114.83161562062	0
3	3222	116.512537825166	0
3	3251	117.63781984201	0
3	3268	117.92523031808	0
3	3294	118.795766144406	0
3	3300	119.171504986813	0
3	3387	122.535875439864	0
3	3430	123.827784708665	0
3	3445	124.523584169565	0
3	3532	127.649052527223	0
3	3557	128.58145540763	0
3	3560	128.600835188978	0
3	3585	129.235962904609	0
3	3614	130.495006421873	0
3	3643	130.834671154455	0
3	3649	131.318306841044	0
3	3690	132.701286047581	0
3	3707	132.846860026029	0
3	3710	132.955407124524	0
3	3713	133.309631256769	0
3	3716	133.406554011346	0
3	3742	134.250442483937	0
3	3757	134.687470497711	0
3	3777	135.49002248347	0
3	3780	135.524225901828	0
3	3809	136.583235287209	0
3	3835	137.639084895869	0
3	3861	138.026214988018	0
3	3864	138.590825489139	0
3	3890	138.840906984117	0
3	3954	141.109540976809	0
3	4003	143.334455634034	0
3	4006	143.636021547257	0
3	4058	145.276919125184	0
3	4090	146.493938620521	0
3	4096	146.598820456121	0
3	4122	147.033166112065	0
3	4148	148.285773636977	0
3	4174	148.9192362547	0
3	4342	155.684626774637	0
3	4362	156.394544701861	0
3	4365	156.577083303744	0
3	4380	156.709267013359	0
3	4423	158.593195899945	0
3	4475	160.239915001272	0
3	4507	161.081795963004	0
3	4510	161.115582748556	0
3	4513	161.187258132869	0
3	4623	165.237104971674	0
3	4626	165.289017523857	0
3	4681	167.301790260063	0
3	4684	167.318558026055	0
3	4733	169.255135263546	0
3	4736	169.517464572712	0
3	4739	169.52924780463	0
3	4794	170.977041886618	0
3	4820	172.286340250641	0
3	4864	173.672631602662	0
3	4884	174.345092119496	0
3	4902	174.759071042169	0
3	4919	174.77776651259	0
3	4925	174.965285463793	0
3	4928	175.587882807771	0
3	4954	175.841388512914	0
3	5009	177.917419573357	0
3	5061	180.549638435906	0
3	5105	181.768435239249	0
3	5122	181.948392580801	0
3	5125	182.641592350339	0
3	5157	183.613074508434	0
3	5212	184.814045414976	0
3	5261	187.535393670889	0
3	5287	187.846361475859	0
3	5313	188.798191183401	0
3	5345	189.934787678658	0
3	5371	190.826166255568	0
3	5400	192.215843319344	0
3	5490	195.553777653198	0
3	5505	195.759809701681	0
3	5577	198.64888529358	0
3	5602	199.323129863216	0
3	5605	199.581142627156	0
4	9	1.859604212075	0
4	18	2.646805352057	0
4	61	4.52576940626	0
4	86	5.563928706924	0
4	103	6.139447903807	0
4	158	8.362972325843	0
4	166	8.681328466685	0
4	183	9.164930571633	0
4	208	9.814376919884	0
4	246	11.486588120209	0
4	266	12.14047068743	0
4	278	12.639342696446	0
4	356	15.237596782295	0
4	359	15.258022370694	0
4	371	15.717270507949	0
4	423	17.504758171388	0
4	463	19.010542430025	0
4	466	19.16177328369	0
4	518	21.202087541632	0
4	608	25.047309410774	0
4	615	25.666238870401	0
4	669	27.182774844391	0
4	696	28.20420671874	0
4	720	29.076527913782	0
4	799	31.970948391769	0
4	809	32.6126430938	0
4	860	34.100897919552	0
4	864	34.344946410289	0
4	902	35.185281115901	0
4	905	35.347417605347	0
4	934	36.294414282522	0
4	966	37.25396225989	0
4	1015	39.582875634104	0
4	1047	40.728014588804	0
4	1079	41.677509172301	0
4	1119	42.873616971758	0
4	1122	42.978178197533	0
4	1125	43.040293487999	0
4	1215	46.540507172454	0
4	1219	46.727933238472	0
4	1236	46.964139944555	0
4	1249	47.407543973176	0
4	1271	47.786505937459	0
4	1286	48.72256749723	0
4	1306	49.115680054534	0
4	1309	49.154863210947	0
4	1321	49.732187521754	0
4	1350	50.738058526921	0
4	1436	53.931005168975	0
4	1439	54.038640277131	0
4	1471	55.096466690483	0
4	1474	55.272380235909	0
4	1625	60.632480586152	0
4	1646	60.805608042298	0
4	1649	60.92256345209	0
4	1678	62.045731753623	0
4	1687	62.427287596997	0
4	1699	62.646168193504	0
4	1780	65.633358085356	0
4	1783	65.647022663787	0
4	1786	65.749167545312	0
4	1812	66.724269479468	0
4	1861	68.544088398752	0
4	1959	72.293119858336	0
4	1981	72.925456454732	0
4	1989	73.638040048065	0
4	2091	77.399967332569	0
4	2098	77.732377573533	0
4	2115	77.860434338844	0
4	2118	78.305853800764	0
4	2126	78.657029890145	0
4	2143	79.312676174509	0
4	2155	79.439064810934	0
4	2181	80.605938337483	0
4	2198	80.988639286345	0
4	2253	83.112876483347	0
4	2256	83.179173884829	0
4	2268	83.423569332911	0
4	2297	84.602758859976	0
4	2326	85.438856391946	0
4	2329	85.747271232044	0
4	2355	86.458519169261	0
4	2372	87.199278119708	0
4	2436	89.684860476685	0
4	2468	90.542756117759	0
4	2485	90.868096533288	0
4	2488	91.251656747387	0
4	2491	91.261057498051	0
4	2517	92.361903408142	0
4	2575	94.209231059144	0
4	2633	96.050513530631	0
4	2648	96.557713653888	0
4	2674	97.362511053689	0
4	2700	97.824241949733	0
4	2703	97.828948490225	0
4	2706	97.987289996456	0
4	2735	99.119924138428	0
4	2747	99.434645799283	0
4	2776	100.65115445272	0
4	2793	100.991501190955	0
4	2880	104.26664436867	0
4	2909	105.163235239456	0
4	2935	106.01245605102	0
4	2964	107.031114781039	0
4	3016	109.252621679513	0
4	3045	110.392229643046	0
4	3074	110.988609037376	0
4	3181	114.83161562062	0
4	3222	116.512537825166	0
4	3251	117.63781984201	0
4	3268	117.92523031808	0
4	3294	118.795766144406	0
4	3300	119.171504986813	0
4	3387	122.535875439864	0
4	3430	123.827784708665	0
4	3445	124.523584169565	0
4	3532	127.649052527223	0
4	3557	128.58145540763	0
4	3560	128.600835188978	0
4	3585	129.235962904609	0
4	3614	130.495006421873	0
4	3643	130.834671154455	0
4	3649	131.318306841044	0
4	3690	132.701286047581	0
4	3707	132.846860026029	0
4	3710	132.955407124524	0
4	3713	133.309631256769	0
4	3716	133.406554011346	0
4	3742	134.250442483937	0
4	3757	134.687470497711	0
4	3777	135.49002248347	0
4	3780	135.524225901828	0
4	3809	136.583235287209	0
4	3835	137.639084895869	0
4	3861	138.026214988018	0
4	3864	138.590825489139	0
4	3890	138.840906984117	0
4	3954	141.109540976809	0
4	4003	143.334455634034	0
4	4006	143.636021547257	0
4	4058	145.276919125184	0
4	4090	146.493938620521	0
4	4096	146.598820456121	0
4	4122	147.033166112065	0
4	4148	148.285773636977	0
4	4174	148.9192362547	0
4	4342	155.684626774637	0
4	4362	156.394544701861	0
4	4365	156.577083303744	0
4	4380	156.709267013359	0
4	4423	158.593195899945	0
4	4475	160.239915001272	0
4	4507	161.081795963004	0
4	4510	161.115582748556	0
4	4513	161.187258132869	0
4	4623	165.237104971674	0
4	4626	165.289017523857	0
4	4681	167.301790260063	0
4	4684	167.318558026055	0
4	4733	169.255135263546	0
4	4736	169.517464572712	0
4	4739	169.52924780463	0
4	4794	170.977041886618	0
4	4820	172.286340250641	0
4	4864	173.672631602662	0
4	4884	174.345092119496	0
4	4902	174.759071042169	0
4	4919	174.77776651259	0
4	4925	174.965285463793	0
4	4928	175.587882807771	0
4	4954	175.841388512914	0
4	5009	177.917419573357	0
4	5061	180.549638435906	0
4	5105	181.768435239249	0
4	5122	181.948392580801	0
4	5125	182.641592350339	0
4	5157	183.613074508434	0
4	5212	184.814045414976	0
4	5261	187.535393670889	0
4	5287	187.846361475859	0
4	5313	188.798191183401	0
4	5345	189.934787678658	0
4	5371	190.826166255568	0
4	5400	192.215843319344	0
4	5490	195.553777653198	0
4	5505	195.759809701681	0
4	5577	198.64888529358	0
4	5602	199.323129863216	0
4	5605	199.581142627156	0
5	10	1.859604212075	1
5	11	1.859604212075	0
5	19	2.646805352057	1
5	20	2.859604212075	0
5	62	4.52576940626	1
5	63	4.52576940626	0
5	87	5.563928706924	1
5	88	5.563928706924	0
5	104	6.139447903807	1
5	115	6.563928706924	0
5	159	8.362972325843	1
5	160	8.362972325843	0
5	167	8.681328466685	1
5	184	9.164930571633	2
5	185	9.362972325843	1
5	209	9.814376919884	2
5	210	10.362972325843	1
5	236	11.362972325843	0
5	247	11.486588120209	1
5	267	12.14047068743	2
5	268	12.362972325843	1
5	279	12.639342696446	2
5	297	13.362972325843	1
5	320	14.362972325843	0
5	357	15.237596782295	1
5	360	15.258022370694	2
5	361	15.362972325843	1
5	372	15.717270507949	2
5	390	16.362972325843	1
5	413	17.362972325843	0
5	424	17.504758171388	1
5	439	18.362972325843	0
5	464	19.010542430025	1
5	467	19.16177328369	2
5	471	19.362972325843	1
5	494	20.362972325843	0
5	519	21.202087541632	1
5	523	21.362972325843	0
5	609	25.047309410774	1
5	610	25.047309410774	0
5	616	25.666238870401	1
5	634	26.047309410774	0
5	670	27.182774844391	1
5	671	27.182774844391	0
5	697	28.20420671874	1
5	698	28.20420671874	0
5	721	29.076527913782	1
5	726	29.20420671874	0
5	800	31.970948391769	1
5	801	31.970948391769	0
5	810	32.6126430938	1
5	828	32.970948391769	0
5	861	34.100897919552	1
5	862	34.100897919552	0
5	865	34.344946410289	1
5	893	35.100897919552	0
5	903	35.185281115901	1
5	906	35.347417605347	2
5	921	36.100897919552	1
5	935	36.294414282522	2
5	956	37.100897919552	1
5	967	37.25396225989	2
5	982	38.100897919552	1
5	1005	39.100897919552	0
5	1016	39.582875634104	1
5	1034	40.100897919552	0
5	1048	40.728014588804	1
5	1066	41.100897919552	0
5	1080	41.677509172301	1
5	1095	42.100897919552	0
5	1120	42.873616971758	1
5	1123	42.978178197533	2
5	1126	43.040293487999	3
5	1127	43.100897919552	2
5	1153	44.100897919552	1
5	1179	45.100897919552	0
5	1216	46.540507172454	1
5	1217	46.540507172454	0
5	1220	46.727933238472	1
5	1237	46.964139944555	2
5	1250	47.407543973176	3
5	1251	47.540507172454	2
5	1272	47.786505937459	3
5	1276	48.540507172454	2
5	1287	48.72256749723	3
5	1307	49.115680054534	4
5	1310	49.154863210947	5
5	1311	49.540507172454	4
5	1322	49.732187521754	5
5	1340	50.540507172454	4
5	1351	50.738058526921	5
5	1366	51.540507172454	4
5	1389	52.540507172454	3
5	1412	53.540507172454	2
5	1437	53.931005168975	3
5	1440	54.038640277131	4
5	1447	54.540507172454	3
5	1472	55.096466690483	4
5	1475	55.272380235909	5
5	1479	55.540507172454	4
5	1502	56.540507172454	3
5	1531	57.540507172454	2
5	1560	58.540507172454	1
5	1589	59.540507172454	0
5	1626	60.632480586152	1
5	1627	60.632480586152	0
5	1647	60.805608042298	1
5	1650	60.92256345209	2
5	1658	61.632480586152	1
5	1679	62.045731753623	2
5	1688	62.427287596997	3
5	1689	62.632480586152	2
5	1700	62.646168193504	3
5	1715	63.632480586152	2
5	1744	64.632480586152	1
5	1770	65.632480586152	0
5	1781	65.633358085356	1
5	1784	65.647022663787	2
5	1787	65.749167545312	3
5	1802	66.632480586152	2
5	1813	66.724269479468	3
5	1831	67.632480586152	2
5	1862	68.544088398752	3
5	1863	68.632480586152	2
5	1886	69.632480586152	1
5	1909	70.632480586152	0
5	1960	72.293119858336	1
5	1961	72.293119858336	0
5	1982	72.925456454732	1
5	1983	73.293119858336	0
5	1990	73.638040048065	1
5	2011	74.293119858336	0
5	2092	77.399967332569	1
5	2093	77.399967332569	0
5	2099	77.732377573533	1
5	2116	77.860434338844	2
5	2119	78.305853800764	3
5	2120	78.399967332569	2
5	2127	78.657029890145	3
5	2144	79.312676174509	4
5	2145	79.399967332569	3
5	2156	79.439064810934	4
5	2171	80.399967332569	3
5	2182	80.605938337483	4
5	2199	80.988639286345	5
5	2200	81.399967332569	4
5	2229	82.399967332569	3
5	2254	83.112876483347	4
5	2257	83.179173884829	5
5	2258	83.399967332569	4
5	2269	83.423569332911	5
5	2284	84.399967332569	4
5	2298	84.602758859976	5
5	2313	85.399967332569	4
5	2327	85.438856391946	5
5	2330	85.747271232044	6
5	2345	86.399967332569	5
5	2356	86.458519169261	6
5	2373	87.199278119708	7
5	2374	87.399967332569	6
5	2403	88.399967332569	5
5	2426	89.399967332569	4
5	2437	89.684860476685	5
5	2458	90.399967332569	4
5	2469	90.542756117759	5
5	2486	90.868096533288	6
5	2489	91.251656747387	7
5	2492	91.261057498051	8
5	2493	91.399967332569	7
5	2518	92.361903408142	8
5	2519	92.399967332569	7
5	2548	93.399967332569	6
5	2576	94.209231059144	7
5	2577	94.399967332569	6
5	2603	95.399967332569	5
5	2634	96.050513530631	6
5	2638	96.399967332569	5
5	2649	96.557713653888	6
5	2675	97.362511053689	7
5	2676	97.399967332569	6
5	2701	97.824241949733	7
5	2704	97.828948490225	8
5	2707	97.987289996456	9
5	2708	98.399967332569	8
5	2736	99.119924138428	9
5	2737	99.399967332569	8
5	2748	99.434645799283	9
5	2766	100.399967332569	8
5	2777	100.65115445272	9
5	2794	100.991501190955	10
5	2798	101.399967332569	9
5	2827	102.399967332569	8
5	2853	103.399967332569	7
5	2881	104.26664436867	8
5	2882	104.399967332569	7
5	2910	105.163235239456	8
5	2911	105.399967332569	7
5	2936	106.01245605102	8
5	2937	106.399967332569	7
5	2965	107.031114781039	8
5	2969	107.399967332569	7
5	2992	108.399967332569	6
5	3017	109.252621679513	7
5	3018	109.399967332569	6
5	3046	110.392229643046	7
5	3047	110.399967332569	6
5	3075	110.988609037376	7
5	3076	111.399967332569	6
5	3099	112.399967332569	5
5	3125	113.399967332569	4
5	3154	114.399967332569	3
5	3182	114.83161562062	4
5	3183	115.399967332569	3
5	3209	116.399967332569	2
5	3223	116.512537825166	3
5	3241	117.399967332569	2
5	3252	117.63781984201	3
5	3269	117.92523031808	4
5	3270	118.399967332569	3
5	3295	118.795766144406	4
5	3301	119.171504986813	5
5	3302	119.399967332569	4
5	3325	120.399967332569	3
5	3351	121.399967332569	2
5	3377	122.399967332569	1
5	3388	122.535875439864	2
5	3406	123.399967332569	1
5	3431	123.827784708665	2
5	3435	124.399967332569	1
5	3446	124.523584169565	2
5	3467	125.399967332569	1
5	3490	126.399967332569	0
5	3533	127.649052527223	1
5	3534	127.649052527223	0
5	3558	128.58145540763	1
5	3561	128.600835188978	2
5	3562	128.649052527223	1
5	3586	129.235962904609	2
5	3590	129.649052527223	1
5	3615	130.495006421873	2
5	3619	130.649052527223	1
5	3644	130.834671154455	2
5	3650	131.318306841044	3
5	3651	131.649052527223	2
5	3680	132.649052527223	1
5	3691	132.701286047581	2
5	3708	132.846860026029	3
5	3711	132.955407124524	4
5	3714	133.309631256769	5
5	3717	133.406554011346	6
5	3718	133.649052527223	5
5	3743	134.250442483937	6
5	3747	134.649052527223	5
5	3758	134.687470497711	6
5	3778	135.49002248347	7
5	3781	135.524225901828	8
5	3782	135.649052527223	7
5	3810	136.583235287209	8
5	3811	136.649052527223	7
5	3836	137.639084895869	8
5	3837	137.649052527223	7
5	3862	138.026214988018	8
5	3865	138.590825489139	9
5	3866	138.649052527223	8
5	3891	138.840906984117	9
5	3892	139.649052527223	8
5	3927	140.649052527223	7
5	3955	141.109540976809	8
5	3956	141.649052527223	7
5	3979	142.649052527223	6
5	4004	143.334455634034	7
5	4007	143.636021547257	8
5	4008	143.649052527223	7
5	4031	144.649052527223	6
5	4059	145.276919125184	7
5	4060	145.649052527223	6
5	4091	146.493938620521	7
5	4097	146.598820456121	8
5	4098	146.649052527223	7
5	4123	147.033166112065	8
5	4124	147.649052527223	7
5	4149	148.285773636977	8
5	4150	148.649052527223	7
5	4175	148.9192362547	8
5	4179	149.649052527223	7
5	4202	150.649052527223	6
5	4231	151.649052527223	5
5	4254	152.649052527223	4
5	4280	153.649052527223	3
5	4303	154.649052527223	2
5	4332	155.649052527223	1
5	4343	155.684626774637	2
5	4363	156.394544701861	3
5	4366	156.577083303744	4
5	4367	156.649052527223	3
5	4381	156.709267013359	4
5	4396	157.649052527223	3
5	4424	158.593195899945	4
5	4425	158.649052527223	3
5	4448	159.649052527223	2
5	4476	160.239915001272	3
5	4477	160.649052527223	2
5	4508	161.081795963004	3
5	4511	161.115582748556	4
5	4514	161.187258132869	5
5	4518	161.649052527223	4
5	4544	162.649052527223	3
5	4573	163.649052527223	2
5	4599	164.649052527223	1
5	4624	165.237104971674	2
5	4627	165.289017523857	3
5	4631	165.649052527223	2
5	4657	166.649052527223	1
5	4682	167.301790260063	2
5	4685	167.318558026055	3
5	4686	167.649052527223	2
5	4709	168.649052527223	1
5	4734	169.255135263546	2
5	4737	169.517464572712	3
5	4740	169.52924780463	4
5	4744	169.649052527223	3
5	4770	170.649052527223	2
5	4795	170.977041886618	3
5	4796	171.649052527223	2
5	4821	172.286340250641	3
5	4822	172.649052527223	2
5	4854	173.649052527223	1
5	4865	173.672631602662	2
5	4885	174.345092119496	3
5	4892	174.649052527223	2
5	4903	174.759071042169	3
5	4920	174.77776651259	4
5	4926	174.965285463793	5
5	4929	175.587882807771	6
5	4930	175.649052527223	5
5	4955	175.841388512914	6
5	4959	176.649052527223	5
5	4985	177.649052527223	4
5	5010	177.917419573357	5
5	5011	178.649052527223	4
5	5034	179.649052527223	3
5	5062	180.549638435906	4
5	5066	180.649052527223	3
5	5095	181.649052527223	2
5	5106	181.768435239249	3
5	5123	181.948392580801	4
5	5126	182.641592350339	5
5	5127	182.649052527223	4
5	5158	183.613074508434	5
5	5159	183.649052527223	4
5	5188	184.649052527223	3
5	5213	184.814045414976	4
5	5214	185.649052527223	3
5	5237	186.649052527223	2
5	5262	187.535393670889	3
5	5263	187.649052527223	2
5	5288	187.846361475859	3
5	5289	188.649052527223	2
5	5314	188.798191183401	3
5	5318	189.649052527223	2
5	5346	189.934787678658	3
5	5347	190.649052527223	2
5	5372	190.826166255568	3
5	5373	191.649052527223	2
5	5401	192.215843319344	3
5	5402	192.649052527223	2
5	5431	193.649052527223	1
5	5457	194.649052527223	0
5	5491	195.553777653198	1
5	5495	195.649052527223	0
5	5506	195.759809701681	1
5	5524	196.649052527223	0
5	5578	198.64888529358	1
5	5579	198.64888529358	0
5	5603	199.323129863216	1
5	5606	199.581142627156	2
5	5607	199.64888529358	1
6	14	1.898660388484	2
6	28	2.898660388484	2
6	66	4.773428855839	2
6	92	5.773428855839	4
6	123	6.773428855839	2
6	146	7.773428855839	4
6	171	8.773428855839	2
6	196	9.773428855839	2
6	222	10.773428855839	2
6	251	11.773428855839	2
6	286	12.773428855839	4
6	309	13.773428855839	4
6	338	14.773428855839	4
6	376	15.773428855839	2
6	402	16.773428855839	4
6	428	17.773428855839	2
6	451	18.773428855839	4
6	483	19.773428855839	2
6	506	20.773428855839	4
6	535	21.773428855839	2
6	561	22.773428855839	4
6	582	23.773428855839	4
6	596	24.773428855839	2
6	620	25.773428855839	2
6	642	26.773428855839	2
6	675	27.773428855839	2
6	708	28.773428855839	4
6	737	29.773428855839	2
6	760	30.773428855839	4
6	787	31.773428855839	4
6	817	32.773428855839	4
6	836	33.773428855839	2
6	875	34.773428855839	4
6	910	35.773428855839	4
6	942	36.773428855839	2
6	971	37.773428855839	4
6	994	38.773428855839	2
6	1023	39.773428855839	4
6	1052	40.773428855839	4
6	1084	41.773428855839	2
6	1107	42.773428855839	2
6	1142	43.773428855839	2
6	1165	44.773428855839	2
6	1191	45.773428855839	4
6	1224	46.773428855839	2
6	1259	47.773428855839	4
6	1291	48.773428855839	2
6	1326	49.773428855839	2
6	1355	50.773428855839	4
6	1378	51.773428855839	2
6	1401	52.773428855839	4
6	1424	53.773428855839	2
6	1459	54.773428855839	4
6	1491	55.773428855839	2
6	1517	56.773428855839	2
6	1546	57.773428855839	2
6	1572	58.773428855839	2
6	1601	59.773428855839	2
6	1634	60.773428855839	4
6	1666	61.773428855839	2
6	1704	62.773428855839	2
6	1727	63.773428855839	2
6	1756	64.773428855839	2
6	1791	65.773428855839	4
6	1817	66.773428855839	2
6	1843	67.773428855839	4
6	1875	68.773428855839	2
6	1898	69.773428855839	2
6	1921	70.773428855839	2
6	1944	71.773428855839	4
6	1969	72.773428855839	4
6	1994	73.773428855839	4
6	2023	74.773428855839	2
6	2052	75.773428855839	4
6	2070	76.773428855839	2
6	2103	77.773428855839	2
6	2131	78.773428855839	4
6	2160	79.773428855839	2
6	2186	80.773428855839	4
6	2215	81.773428855839	4
6	2241	82.773428855839	2
6	2273	83.773428855839	4
6	2302	84.773428855839	2
6	2334	85.773428855839	4
6	2360	86.773428855839	2
6	2392	87.773428855839	4
6	2415	88.773428855839	2
6	2441	89.773428855839	4
6	2473	90.773428855839	2
6	2505	91.773428855839	2
6	2531	92.773428855839	4
6	2560	93.773428855839	2
6	2589	94.773428855839	4
6	2618	95.773428855839	2
6	2653	96.773428855839	4
6	2688	97.773428855839	4
6	2720	98.773428855839	4
6	2752	99.773428855839	4
6	2781	100.773428855839	2
6	2813	101.773428855839	2
6	2839	102.773428855839	4
6	2865	103.773428855839	2
6	2897	104.773428855839	4
6	2923	105.773428855839	4
6	2949	106.773428855839	2
6	2981	107.773428855839	2
6	3004	108.773428855839	4
6	3030	109.773428855839	2
6	3059	110.773428855839	2
6	3088	111.773428855839	4
6	3114	112.773428855839	2
6	3137	113.773428855839	2
6	3169	114.773428855839	4
6	3195	115.773428855839	2
6	3227	116.773428855839	4
6	3256	117.773428855839	2
6	3282	118.773428855839	2
6	3314	119.773428855839	4
6	3337	120.773428855839	2
6	3363	121.773428855839	2
6	3392	122.773428855839	4
6	3418	123.773428855839	4
6	3450	124.773428855839	2
6	3479	125.773428855839	2
6	3505	126.773428855839	4
6	3538	127.773428855839	2
6	3570	128.773428855839	4
6	3602	129.773428855839	4
6	3631	130.773428855839	2
6	3663	131.773428855839	4
6	3695	132.773428855839	2
6	3730	133.773428855839	2
6	3762	134.773428855839	4
6	3794	135.773428855839	4
6	3823	136.773428855839	4
6	3849	137.773428855839	4
6	3878	138.773428855839	2
6	3907	139.773428855839	4
6	3939	140.773428855839	2
6	3968	141.773428855839	2
6	3991	142.773428855839	4
6	4020	143.773428855839	2
6	4043	144.773428855839	4
6	4072	145.773428855839	2
6	4110	146.773428855839	4
6	4136	147.773428855839	2
6	4162	148.773428855839	2
6	4191	149.773428855839	2
6	4214	150.773428855839	2
6	4243	151.773428855839	4
6	4266	152.773428855839	4
6	4292	153.773428855839	4
6	4315	154.773428855839	2
6	4350	155.773428855839	2
6	4385	156.773428855839	4
6	4408	157.773428855839	4
6	4437	158.773428855839	4
6	4460	159.773428855839	2
6	4492	160.773428855839	4
6	4530	161.773428855839	2
6	4556	162.773428855839	4
6	4585	163.773428855839	4
6	4611	164.773428855839	2
6	4643	165.773428855839	2
6	4669	166.773428855839	4
6	4698	167.773428855839	4
6	4721	168.773428855839	2
6	4756	169.773428855839	2
6	4782	170.773428855839	4
6	4808	171.773428855839	4
6	4834	172.773428855839	4
6	4869	173.773428855839	2
6	4907	174.773428855839	2
6	4942	175.773428855839	4
6	4971	176.773428855839	2
6	4997	177.773428855839	4
6	5023	178.773428855839	2
6	5049	179.773428855839	4
6	5078	180.773428855839	2
6	5110	181.773428855839	2
6	5139	182.773428855839	2
6	5171	183.773428855839	4
6	5200	184.773428855839	2
6	5226	185.773428855839	2
6	5249	186.773428855839	2
6	5275	187.773428855839	4
6	5301	188.773428855839	4
6	5330	189.773428855839	2
6	5359	190.773428855839	4
6	5385	191.773428855839	2
6	5414	192.773428855839	4
6	5443	193.773428855839	2
6	5469	194.773428855839	4
6	5510	195.773428855839	2
6	5539	196.773428855839	2
6	5562	197.773428855839	4
6	5590	198.773428855839	2
6	5615	199.773428855839	4
7	14	1.898660388484	1.0001
7	28	2.898660388484	1.076876868529
7	66	4.773428855839	1.0001
7	92	5.773428855839	3.913824643764
7	123	6.773428855839	2.44905151333
7	146	7.773428855839	5.126623503782
7	171	8.773428855839	3.472045086937
7	196	9.773428855839	3.986916923215
7	222	10.773428855839	4.633757784077
7	251	11.773428855839	5.575373114984
7	286	12.773428855839	8.247659449579
7	309	13.773428855839	8.209500148915
7	338	14.773428855839	8.633980952032
7	376	15.773428855839	6.260460835056
7	402	16.773428855839	8.410456529996
7	428	17.773428855839	6.691564717433
7	451	18.773428855839	10.092100389154
7	483	19.773428855839	7.93889060412
7	506	20.773428855839	11.608498284206
7	535	21.773428855839	9.09945775122
7	561	22.773428855839	12.959051935955
7	582	23.773428855839	12.28684073563
7	596	24.773428855839	10.291088486945
7	620	25.773428855839	11.21740313148
7	642	26.773428855839	11.805825135237
7	675	27.773428855839	12.714664109113
7	708	28.773428855839	16.632958168409
7	737	29.773428855839	13.670051600805
7	760	30.773428855839	18.134086159393
7	787	31.773428855839	16.535832073544
7	817	32.773428855839	17.515406485145
7	836	33.773428855839	14.519881672129
7	875	34.773428855839	19.05615834789
7	910	35.773428855839	18.268670684451
7	942	36.773428855839	15.478989456217
7	971	37.773428855839	18.762886425814
7	994	38.773428855839	16.837280283539
7	1023	39.773428855839	20.611655572149
7	1052	40.773428855839	19.571341314207
7	1084	41.773428855839	18.232040726477
7	1107	42.773428855839	17.618038651584
7	1142	43.773428855839	17.883074230394
7	1165	44.773428855839	17.747135288684
7	1191	45.773428855839	20.726119445065
7	1224	46.773428855839	19.621260879246
7	1259	47.773428855839	22.107189985438
7	1291	48.773428855839	20.346033177022
7	1326	49.773428855839	21.191303496522
7	1355	50.773428855839	23.590654011448
7	1378	51.773428855839	22.420468838055
7	1401	52.773428855839	24.569222137099
7	1424	53.773428855839	22.999104157961
7	1459	54.773428855839	25.696900942057
7	1491	55.773428855839	24.261276866205
7	1517	56.773428855839	25.149330705572
7	1546	57.773428855839	25.613764985344
7	1572	58.773428855839	26.306484633191
7	1601	59.773428855839	27.100281351161
7	1634	60.773428855839	28.80248046407
7	1666	61.773428855839	27.764991166537
7	1704	62.773428855839	28.155908743354
7	1727	63.773428855839	29.010630716062
7	1756	64.773428855839	29.991662146861
7	1791	65.773428855839	33.160785762039
7	1817	66.773428855839	31.599891336184
7	1843	67.773428855839	33.672530936287
7	1875	68.773428855839	32.638510397118
7	1898	69.773428855839	33.387068465043
7	1921	70.773428855839	33.898511415735
7	1944	71.773428855839	37.42848244555
7	1969	72.773428855839	37.588147739938
7	1994	73.773428855839	38.426011250492
7	2023	74.773428855839	35.020596394457
7	2052	75.773428855839	39.479014573317
7	2070	76.773428855839	36.422850317639
7	2103	77.773428855839	36.977331822588
7	2131	78.773428855839	41.519466595949
7	2160	79.773428855839	38.402799415847
7	2186	80.773428855839	41.190553221735
7	2215	81.773428855839	41.045414267035
7	2241	82.773428855839	39.076448354153
7	2273	83.773428855839	42.095919683538
7	2302	84.773428855839	39.977535886602
7	2334	85.773428855839	42.899811884081
7	2360	86.773428855839	40.918701755114
7	2392	87.773428855839	44.795250658306
7	2415	88.773428855839	41.808104309427
7	2441	89.773428855839	46.73313536784
7	2473	90.773428855839	43.670075620999
7	2505	91.773428855839	43.281032931208
7	2531	92.773428855839	46.232921683385
7	2560	93.773428855839	44.828930870983
7	2589	94.773428855839	48.045495617367
7	2618	95.773428855839	45.984503077455
7	2653	96.773428855839	49.809288911284
7	2688	97.773428855839	50.365884882663
7	2720	98.773428855839	50.98692291838
7	2752	99.773428855839	51.050861358609
7	2781	100.773428855839	46.530006231279
7	2813	101.773428855839	47.295704712503
7	2839	102.773428855839	53.657748801305
7	2865	103.773428855839	48.287685467083
7	2897	104.773428855839	55.618565644892
7	2923	105.773428855839	56.041241334085
7	2949	106.773428855839	50.228942751989
7	2981	107.773428855839	50.357026898363
7	3004	108.773428855839	58.035370328918
7	3030	109.773428855839	52.064946365096
7	3059	110.773428855839	52.529881688013
7	3088	111.773428855839	57.842423686864
7	3114	112.773428855839	53.901940107022
7	3137	113.773428855839	54.258159105419
7	3169	114.773428855839	60.734788578708
7	3195	115.773428855839	55.97788209694
7	3227	116.773428855839	61.676962165356
7	3256	117.773428855839	57.001018022869
7	3282	118.773428855839	57.588516792947
7	3314	119.773428855839	64.50104861993
7	3337	120.773428855839	58.520444595797
7	3363	121.773428855839	59.371732326545
7	3392	122.773428855839	62.140948269687
7	3418	123.773428855839	62.967820813541
7	3450	124.773428855839	60.865096993272
7	3479	125.773428855839	61.405083035532
7	3505	126.773428855839	65.850865403749
7	3538	127.773428855839	62.318813654654
7	3570	128.773428855839	66.727697102216
7	3602	129.773428855839	67.346141258842
7	3631	130.773428855839	63.598481996937
7	3663	131.773428855839	69.127260662335
7	3695	132.773428855839	64.478667631183
7	3730	133.773428855839	65.377632855874
7	3762	134.773428855839	69.140070770483
7	3794	135.773428855839	70.126406192052
7	3823	136.773428855839	71.024261310527
7	3849	137.773428855839	71.049159376371
7	3878	138.773428855839	66.80404448353
7	3907	139.773428855839	71.229340457087
7	3939	140.773428855839	66.698723182738
7	3968	141.773428855839	67.641396256314
7	3991	142.773428855839	70.480308997503
7	4020	143.773428855839	68.712917759413
7	4043	144.773428855839	71.847972401107
7	4072	145.773428855839	70.112970872772
7	4110	146.773428855839	73.135388807774
7	4136	147.773428855839	70.76872560062
7	4162	148.773428855839	71.748535472474
7	4191	149.773428855839	72.708559173416
7	4214	150.773428855839	73.125680784549
7	4243	151.773428855839	74.37346152327
7	4266	152.773428855839	75.041051282306
7	4292	153.773428855839	75.912994516995
7	4315	154.773428855839	73.234110661704
7	4350	155.773428855839	73.699226285947
7	4385	156.773428855839	78.467575055075
7	4408	157.773428855839	79.116398965694
7	4437	158.773428855839	79.46075268133
7	4460	159.773428855839	75.195314502862
7	4492	160.773428855839	81.334364044905
7	4530	161.773428855839	76.362470986796
7	4556	162.773428855839	82.167490518356
7	4585	163.773428855839	82.784789569494
7	4611	164.773428855839	77.359230464289
7	4643	165.773428855839	78.260580155871
7	4669	166.773428855839	83.660552372492
7	4698	167.773428855839	84.59425497101
7	4721	168.773428855839	78.720275647912
7	4756	169.773428855839	79.633505165572
7	4782	170.773428855839	87.349859522928
7	4808	171.773428855839	87.170669995863
7	4834	172.773428855839	87.334572463893
7	4869	173.773428855839	80.984249236896
7	4907	174.773428855839	81.842918523335
7	4942	175.773428855839	90.026157623795
7	4971	176.773428855839	82.801137869156
7	4997	177.773428855839	91.314909686578
7	5023	178.773428855839	83.541204059047
7	5049	179.773428855839	92.574150736131
7	5078	180.773428855839	85.199549892021
7	5110	181.773428855839	85.892032168259
7	5139	182.773428855839	86.689681729692
7	5171	183.773428855839	94.088568379154
7	5200	184.773428855839	87.806552687733
7	5226	185.773428855839	88.786240228937
7	5249	186.773428855839	89.605987976952
7	5275	187.773428855839	97.23067273808
7	5301	188.773428855839	97.905332322551
7	5330	189.773428855839	90.840246904539
7	5359	190.773428855839	99.521772108452
7	5385	191.773428855839	91.997163872391
7	5414	192.773428855839	101.51237135779
7	5443	193.773428855839	92.668405998641
7	5469	194.773428855839	102.4115254477
7	5510	195.773428855839	94.100501845161
7	5539	196.773428855839	94.814480872653
7	5562	197.773428855839	103.56419779669
7	5590	198.773428855839	95.403456463359
7	5615	199.773428855839	103.72291532521
8	15	1.898660388484	1
8	16	1.898660388484	0
8	29	2.898660388484	1
8	30	2.898660388484	0
8	67	4.773428855839	1
8	68	4.773428855839	0
8	93	5.773428855839	1
8	94	5.773428855839	0
8	124	6.773428855839	1
8	125	6.773428855839	0
8	147	7.773428855839	1
8	148	7.773428855839	0
8	172	8.773428855839	1
8	173	8.773428855839	0
8	197	9.773428855839	1
8	198	9.773428855839	0
8	223	10.773428855839	1
8	224	10.773428855839	0
8	252	11.773428855839	1
8	253	11.773428855839	0
8	287	12.773428855839	1
8	288	12.773428855839	0
8	310	13.773428855839	1
8	311	13.773428855839	0
8	339	14.773428855839	1
8	340	14.773428855839	0
8	377	15.773428855839	1
8	378	15.773428855839	0
8	403	16.773428855839	1
8	404	16.773428855839	0
8	429	17.773428855839	1
8	430	17.773428855839	0
8	452	18.773428855839	1
8	453	18.773428855839	0
8	484	19.773428855839	1
8	485	19.773428855839	0
8	507	20.773428855839	1
8	508	20.773428855839	0
8	536	21.773428855839	1
8	537	21.773428855839	0
8	562	22.773428855839	1
8	563	22.773428855839	0
8	583	23.773428855839	1
8	584	23.773428855839	0
8	597	24.773428855839	1
8	598	24.773428855839	0
8	621	25.773428855839	1
8	622	25.773428855839	0
8	643	26.773428855839	1
8	644	26.773428855839	0
8	676	27.773428855839	1
8	677	27.773428855839	0
8	709	28.773428855839	1
8	710	28.773428855839	0
8	738	29.773428855839	1
8	739	29.773428855839	0
8	761	30.773428855839	1
8	762	30.773428855839	0
8	788	31.773428855839	1
8	789	31.773428855839	0
8	818	32.773428855839	1
8	819	32.773428855839	0
8	837	33.773428855839	1
8	838	33.773428855839	0
8	876	34.773428855839	1
8	877	34.773428855839	0
8	911	35.773428855839	1
8	912	35.773428855839	0
8	943	36.773428855839	1
8	944	36.773428855839	0
8	972	37.773428855839	1
8	973	37.773428855839	0
8	995	38.773428855839	1
8	996	38.773428855839	0
8	1024	39.773428855839	1
8	1025	39.773428855839	0
8	1053	40.773428855839	1
8	1054	40.773428855839	0
8	1085	41.773428855839	1
8	1086	41.773428855839	0
8	1108	42.773428855839	1
8	1109	42.773428855839	0
8	1143	43.773428855839	1
8	1144	43.773428855839	0
8	1166	44.773428855839	1
8	1167	44.773428855839	0
8	1192	45.773428855839	1
8	1193	45.773428855839	0
8	1225	46.773428855839	1
8	1226	46.773428855839	0
8	1260	47.773428855839	1
8	1261	47.773428855839	0
8	1292	48.773428855839	1
8	1293	48.773428855839	0
8	1327	49.773428855839	1
8	1328	49.773428855839	0
8	1356	50.773428855839	1
8	1357	50.773428855839	0
8	1379	51.773428855839	1
8	1380	51.773428855839	0
8	1402	52.773428855839	1
8	1403	52.773428855839	0
8	1425	53.773428855839	1
8	1426	53.773428855839	0
8	1460	54.773428855839	1
8	1461	54.773428855839	0
8	1492	55.773428855839	1
8	1493	55.773428855839	0
8	1518	56.773428855839	1
8	1519	56.773428855839	0
8	1547	57.773428855839	1
8	1548	57.773428855839	0
8	1573	58.773428855839	1
8	1574	58.773428855839	0
8	1602	59.773428855839	1
8	1603	59.773428855839	0
8	1635	60.773428855839	1
8	1636	60.773428855839	0
8	1667	61.773428855839	1
8	1668	61.773428855839	0
8	1705	62.773428855839	1
8	1706	62.773428855839	0
8	1728	63.773428855839	1
8	1729	63.773428855839	0
8	1757	64.773428855839	1
8	1758	64.773428855839	0
8	1792	65.773428855839	1
8	1793	65.773428855839	0
8	1818	66.773428855839	1
8	1819	66.773428855839	0
8	1844	67.773428855839	1
8	1845	67.773428855839	0
8	1876	68.773428855839	1
8	1877	68.773428855839	0
8	1899	69.773428855839	1
8	1900	69.773428855839	0
8	1922	70.773428855839	1
8	1923	70.773428855839	0
8	1945	71.773428855839	1
8	1946	71.773428855839	0
8	1970	72.773428855839	1
8	1971	72.773428855839	0
8	1995	73.773428855839	1
8	1996	73.773428855839	0
8	2024	74.773428855839	1
8	2025	74.773428855839	0
8	2053	75.773428855839	1
8	2054	75.773428855839	0
8	2071	76.773428855839	1
8	2072	76.773428855839	0
8	2104	77.773428855839	1
8	2105	77.773428855839	0
8	2132	78.773428855839	1
8	2133	78.773428855839	0
8	2161	79.773428855839	1
8	2162	79.773428855839	0
8	2187	80.773428855839	1
8	2188	80.773428855839	0
8	2216	81.773428855839	1
8	2217	81.773428855839	0
8	2242	82.773428855839	1
8	2243	82.773428855839	0
8	2274	83.773428855839	1
8	2275	83.773428855839	0
8	2303	84.773428855839	1
8	2304	84.773428855839	0
8	2335	85.773428855839	1
8	2336	85.773428855839	0
8	2361	86.773428855839	1
8	2362	86.773428855839	0
8	2393	87.773428855839	1
8	2394	87.773428855839	0
8	2416	88.773428855839	1
8	2417	88.773428855839	0
8	2442	89.773428855839	1
8	2443	89.773428855839	0
8	2474	90.773428855839	1
8	2475	90.773428855839	0
8	2506	91.773428855839	1
8	2507	91.773428855839	0
8	2532	92.773428855839	1
8	2533	92.773428855839	0
8	2561	93.773428855839	1
8	2562	93.773428855839	0
8	2590	94.773428855839	1
8	2591	94.773428855839	0
8	2619	95.773428855839	1
8	2620	95.773428855839	0
8	2654	96.773428855839	1
8	2655	96.773428855839	0
8	2689	97.773428855839	1
8	2690	97.773428855839	0
8	2721	98.773428855839	1
8	2722	98.773428855839	0
8	2753	99.773428855839	1
8	2754	99.773428855839	0
8	2782	100.773428855839	1
8	2783	100.773428855839	0
8	2814	101.773428855839	1
8	2815	101.773428855839	0
8	2840	102.773428855839	1
8	2841	102.773428855839	0
8	2866	103.773428855839	1
8	2867	103.773428855839	0
8	2898	104.773428855839	1
8	2899	104.773428855839	0
8	2924	105.773428855839	1
8	2925	105.773428855839	0
8	2950	106.773428855839	1
8	2951	106.773428855839	0
8	2982	107.773428855839	1
8	2983	107.773428855839	0
8	3005	108.773428855839	1
8	3006	108.773428855839	0
8	3031	109.773428855839	1
8	3032	109.773428855839	0
8	3060	110.773428855839	1
8	3061	110.773428855839	0
8	3089	111.773428855839	1
8	3090	111.773428855839	0
8	3115	112.773428855839	1
8	3116	112.773428855839	0
8	3138	113.773428855839	1
8	3139	113.773428855839	0
8	3170	114.773428855839	1
8	3171	114.773428855839	0
8	3196	115.773428855839	1
8	3197	115.773428855839	0
8	3228	116.773428855839	1
8	3229	116.773428855839	0
8	3257	117.773428855839	1
8	3258	117.773428855839	0
8	3283	118.773428855839	1
8	3284	118.773428855839	0
8	3315	119.773428855839	1
8	3316	119.773428855839	0
8	3338	120.773428855839	1
8	3339	120.773428855839	0
8	3364	121.773428855839	1
8	3365	121.773428855839	0
8	3393	122.773428855839	1
8	3394	122.773428855839	0
8	3419	123.773428855839	1
8	3420	123.773428855839	0
8	3451	124.773428855839	1
8	3452	124.773428855839	0
8	3480	125.773428855839	1
8	3481	125.773428855839	0
8	3506	126.773428855839	1
8	3507	126.773428855839	0
8	3539	127.773428855839	1
8	3540	127.773428855839	0
8	3571	128.773428855839	1
8	3572	128.773428855839	0
8	3603	129.773428855839	1
8	3604	129.773428855839	0
8	3632	130.773428855839	1
8	3633	130.773428855839	0
8	3664	131.773428855839	1
8	3665	131.773428855839	0
8	3696	132.773428855839	1
8	3697	132.773428855839	0
8	3731	133.773428855839	1
8	3732	133.773428855839	0
8	3763	134.773428855839	1
8	3764	134.773428855839	0
8	3795	135.773428855839	1
8	3796	135.773428855839	0
8	3824	136.773428855839	1
8	3825	136.773428855839	0
8	3850	137.773428855839	1
8	3851	137.773428855839	0
8	3879	138.773428855839	1
8	3880	138.773428855839	0
8	3908	139.773428855839	1
8	3909	139.773428855839	0
8	3940	140.773428855839	1
8	3941	140.773428855839	0
8	3969	141.773428855839	1
8	3970	141.773428855839	0
8	3992	142.773428855839	1
8	3993	142.773428855839	0
8	4021	143.773428855839	1
8	4022	143.773428855839	0
8	4044	144.773428855839	1
8	4045	144.773428855839	0
8	4073	145.773428855839	1
8	4074	145.773428855839	0
8	4111	146.773428855839	1
8	4112	146.773428855839	0
8	4137	147.773428855839	1
8	4138	147.773428855839	0
8	4163	148.773428855839	1
8	4164	148.773428855839	0
8	4192	149.773428855839	1
8	4193	149.773428855839	0
8	4215	150.773428855839	1
8	4216	150.773428855839	0
8	4244	151.773428855839	1
8	4245	151.773428855839	0
8	4267	152.773428855839	1
8	4268	152.773428855839	0
8	4293	153.773428855839	1
8	4294	153.773428855839	0
8	4316	154.773428855839	1
8	4317	154.773428855839	0
8	4351	155.773428855839	1
8	4352	155.773428855839	0
8	4386	156.773428855839	1
8	4387	156.773428855839	0
8	4409	157.773428855839	1
8	4410	157.773428855839	0
8	4438	158.773428855839	1
8	4439	158.773428855839	0
8	4461	159.773428855839	1
8	4462	159.773428855839	0
8	4493	160.773428855839	1
8	4494	160.773428855839	0
8	4531	161.773428855839	1
8	4532	161.773428855839	0
8	4557	162.773428855839	1
8	4558	162.773428855839	0
8	4586	163.773428855839	1
8	4587	163.773428855839	0
8	4612	164.773428855839	1
8	4613	164.773428855839	0
8	4644	165.773428855839	1
8	4645	165.773428855839	0
8	4670	166.773428855839	1
8	4671	166.773428855839	0
8	4699	167.773428855839	1
8	4700	167.773428855839	0
8	4722	168.773428855839	1
8	4723	168.773428855839	0
8	4757	169.773428855839	1
8	4758	169.773428855839	0
8	4783	170.773428855839	1
8	4784	170.773428855839	0
8	4809	171.773428855839	1
8	4810	171.773428855839	0
8	4835	172.773428855839	1
8	4836	172.773428855839	0
8	4870	173.773428855839	1
8	4871	173.773428855839	0
8	4908	174.773428855839	1
8	4909	174.773428855839	0
8	4943	175.773428855839	1
8	4944	175.773428855839	0
8	4972	176.773428855839	1
8	4973	176.773428855839	0
8	4998	177.773428855839	1
8	4999	177.773428855839	0
8	5024	178.773428855839	1
8	5025	178.773428855839	0
8	5050	179.773428855839	1
8	5051	179.773428855839	0
8	5079	180.773428855839	1
8	5080	180.773428855839	0
8	5111	181.773428855839	1
8	5112	181.773428855839	0
8	5140	182.773428855839	1
8	5141	182.773428855839	0
8	5172	183.773428855839	1
8	5173	183.773428855839	0
8	5201	184.773428855839	1
8	5202	184.773428855839	0
8	5227	185.773428855839	1
8	5228	185.773428855839	0
8	5250	186.773428855839	1
8	5251	186.773428855839	0
8	5276	187.773428855839	1
8	5277	187.773428855839	0
[...]
15	1032	39.773628855839	6
15	1061	40.773628855839	4
15	1093	41.773628855839	6
15	1116	42.773628855839	6
15	1151	43.773628855839	4
15	1174	44.773628855839	4
15	1200	45.773628855839	4
15	1233	46.773628855839	4
15	1268	47.773628855839	6
15	1300	48.773628855839	4
15	1335	49.773628855839	6
15	1364	50.773628855839	4
15	1387	51.773628855839	4
15	1410	52.773628855839	6
15	1433	53.773628855839	4
15	1468	54.773628855839	6
15	1500	55.773628855839	4
15	1526	56.773628855839	6
15	1555	57.773628855839	4
15	1581	58.773628855839	4
15	1610	59.773628855839	4
15	1643	60.773628855839	4
15	1675	61.773628855839	4
15	1713	62.773628855839	6
15	1736	63.773628855839	4
15	1765	64.773628855839	4
15	1800	65.773628855839	4
15	1826	66.773628855839	4
15	1852	67.773628855839	6
15	1884	68.773628855839	4
15	1907	69.773628855839	6
15	1930	70.773628855839	4
15	1953	71.773628855839	4
15	1978	72.773628855839	4
15	2003	73.773628855839	6
15	2032	74.773628855839	6
15	2061	75.773628855839	6
15	2079	76.773628855839	4
15	2112	77.773628855839	6
15	2140	78.773628855839	4
15	2169	79.773628855839	4
15	2195	80.773628855839	6
15	2224	81.773628855839	4
15	2250	82.773628855839	6
15	2282	83.773628855839	6
15	2311	84.773628855839	4
15	2343	85.773628855839	6
15	2369	86.773628855839	4
15	2401	87.773628855839	6
15	2424	88.773628855839	4
15	2450	89.773628855839	6
15	2482	90.773628855839	4
15	2514	91.773628855839	6
15	2540	92.773628855839	4
15	2569	93.773628855839	4
15	2598	94.773628855839	6
15	2627	95.773628855839	4
15	2662	96.773628855839	6
15	2697	97.773628855839	4
15	2729	98.773628855839	6
15	2761	99.773628855839	6
15	2790	100.773628855839	6
15	2822	101.773628855839	6
15	2848	102.773628855839	4
15	2874	103.773628855839	4
15	2906	104.773628855839	6
15	2932	105.773628855839	4
15	2958	106.773628855839	6
15	2990	107.773628855839	6
15	3013	108.773628855839	4
15	3039	109.773628855839	4
15	3068	110.773628855839	6
15	3097	111.773628855839	4
15	3123	112.773628855839	4
15	3146	113.773628855839	6
15	3178	114.773628855839	4
15	3204	115.773628855839	4
15	3236	116.773628855839	6
15	3265	117.773628855839	4
15	3291	118.773628855839	6
15	3323	119.773628855839	4
15	3346	120.773628855839	4
15	3372	121.773628855839	6
15	3401	122.773628855839	4
15	3427	123.773628855839	4
15	3459	124.773628855839	6
15	3488	125.773628855839	6
15	3514	126.773628855839	4
15	3547	127.773628855839	4
15	3579	128.773628855839	6
15	3611	129.773628855839	4
15	3640	130.773628855839	6
15	3672	131.773628855839	6
15	3704	132.773628855839	4
15	3739	133.773628855839	6
15	3771	134.773628855839	4
15	3803	135.773628855839	4
15	3832	136.773628855839	6
15	3858	137.773628855839	6
15	3887	138.773628855839	6
15	3916	139.773628855839	6
15	3948	140.773628855839	4
15	3977	141.773628855839	6
15	4000	142.773628855839	4
15	4029	143.773628855839	4
15	4052	144.773628855839	6
15	4081	145.773628855839	4
15	4119	146.773628855839	6
15	4145	147.773628855839	4
15	4171	148.773628855839	6
15	4200	149.773628855839	4
15	4223	150.773628855839	4
15	4252	151.773628855839	4
15	4275	152.773628855839	4
15	4301	153.773628855839	6
15	4324	154.773628855839	6
15	4359	155.773628855839	6
15	4394	156.773628855839	4
15	4417	157.773628855839	4
15	4446	158.773628855839	6
15	4469	159.773628855839	6
15	4501	160.773628855839	6
15	4539	161.773628855839	4
15	4565	162.773628855839	6
15	4594	163.773628855839	4
15	4620	164.773628855839	6
15	4652	165.773628855839	6
15	4678	166.773628855839	4
15	4707	167.773628855839	4
15	4730	168.773628855839	6
15	4765	169.773628855839	6
15	4791	170.773628855839	4
15	4817	171.773628855839	4
15	4843	172.773628855839	6
15	4878	173.773628855839	6
15	4916	174.773628855839	6
15	4951	175.773628855839	4
15	4980	176.773628855839	4
15	5006	177.773628855839	6
15	5032	178.773628855839	4
15	5058	179.773628855839	6
15	5087	180.773628855839	4
15	5119	181.773628855839	6
15	5148	182.773628855839	4
15	5180	183.773628855839	4
15	5209	184.773628855839	4
15	5235	185.773628855839	6
15	5258	186.773628855839	4
15	5284	187.773628855839	4
15	5310	188.773628855839	4
15	5339	189.773628855839	6
15	5368	190.773628855839	6
15	5394	191.773628855839	4
15	5423	192.773628855839	6
15	5452	193.773628855839	4
15	5478	194.773628855839	6
15	5519	195.773628855839	4
15	5548	196.773628855839	6
15	5571	197.773628855839	4
15	5599	198.773628855839	4
15	5624	199.773628855839	6
16	55	3.898860388484	3.0003
16	75	4.898860388484	3.077076868529
16	132	6.773628855839	3.0003
16	155	7.773628855839	5.914024643764
16	180	8.773628855839	4.44925151333
16	205	9.773628855839	7.126823503782
16	231	10.773628855839	5.472245086937
16	260	11.773628855839	5.987116923215
16	295	12.773628855839	6.633957784077
16	318	13.773628855839	7.575573114984
16	347	14.773628855839	10.247859449579
16	385	15.773628855839	10.209700148915
16	411	16.773628855839	10.634180952032
16	437	17.773628855839	8.260660835056
16	460	18.773628855839	10.410656529996
16	492	19.773628855839	8.691764717433
16	515	20.773628855839	12.092300389154
16	544	21.773628855839	9.93909060412
16	570	22.773628855839	13.608698284206
16	591	23.773628855839	11.09965775122
16	605	24.773628855839	14.959251935955
16	629	25.773628855839	14.28704073563
16	651	26.773628855839	12.291288486945
16	684	27.773628855839	13.21760313148
16	717	28.773628855839	13.806025135237
16	746	29.773628855839	14.714864109113
16	769	30.773628855839	18.633158168409
16	796	31.773628855839	15.670251600805
16	826	32.773628855839	20.134286159393
16	845	33.773628855839	18.536032073544
16	884	34.773628855839	19.515606485145
16	919	35.773628855839	16.520081672129
16	951	36.773628855839	21.05635834789
16	980	37.773628855839	20.268870684451
16	1003	38.773628855839	17.479189456217
16	1032	39.773628855839	20.763086425814
16	1061	40.773628855839	18.837480283539
16	1093	41.773628855839	22.611855572149
16	1116	42.773628855839	21.571541314207
16	1151	43.773628855839	20.232240726477
16	1174	44.773628855839	19.618238651584
16	1200	45.773628855839	19.883274230394
16	1233	46.773628855839	19.747335288684
16	1268	47.773628855839	22.726319445065
16	1300	48.773628855839	21.621460879246
16	1335	49.773628855839	24.107389985438
16	1364	50.773628855839	22.346233177022
16	1387	51.773628855839	23.191503496522
16	1410	52.773628855839	25.590854011448
16	1433	53.773628855839	24.420668838055
16	1468	54.773628855839	26.569422137099
16	1500	55.773628855839	24.999304157961
16	1526	56.773628855839	27.697100942057
16	1555	57.773628855839	26.261476866205
16	1581	58.773628855839	27.149530705572
16	1610	59.773628855839	27.613964985344
16	1643	60.773628855839	28.306684633191
16	1675	61.773628855839	29.100481351161
16	1713	62.773628855839	30.80268046407
16	1736	63.773628855839	29.765191166537
16	1765	64.773628855839	30.156108743354
16	1800	65.773628855839	31.010830716062
16	1826	66.773628855839	31.991862146861
16	1852	67.773628855839	35.160985762039
16	1884	68.773628855839	33.600091336184
16	1907	69.773628855839	35.672730936287
16	1930	70.773628855839	34.638710397118
16	1953	71.773628855839	35.387268465043
16	1978	72.773628855839	35.898711415735
16	2003	73.773628855839	39.42868244555
16	2032	74.773628855839	39.588347739938
16	2061	75.773628855839	40.426211250492
16	2079	76.773628855839	37.020796394457
16	2112	77.773628855839	41.479214573317
16	2140	78.773628855839	38.423050317639
16	2169	79.773628855839	38.977531822588
16	2195	80.773628855839	43.519666595949
16	2224	81.773628855839	40.402999415847
16	2250	82.773628855839	43.190753221735
16	2282	83.773628855839	43.045614267035
16	2311	84.773628855839	41.076648354153
16	2343	85.773628855839	44.096119683538
16	2369	86.773628855839	41.977735886602
16	2401	87.773628855839	44.900011884081
16	2424	88.773628855839	42.918901755114
16	2450	89.773628855839	46.795450658306
16	2482	90.773628855839	43.808304309427
16	2514	91.773628855839	48.73333536784
16	2540	92.773628855839	45.670275620999
16	2569	93.773628855839	45.281232931208
16	2598	94.773628855839	48.233121683385
16	2627	95.773628855839	46.829130870983
16	2662	96.773628855839	50.045695617367
16	2697	97.773628855839	47.984703077455
16	2729	98.773628855839	51.809488911284
16	2761	99.773628855839	52.366084882663
16	2790	100.773628855839	52.98712291838
16	2822	101.773628855839	53.051061358609
16	2848	102.773628855839	48.530206231279
16	2874	103.773628855839	49.295904712503
16	2906	104.773628855839	55.657948801305
16	2932	105.773628855839	50.287885467083
16	2958	106.773628855839	57.618765644892
16	2990	107.773628855839	58.041441334085
16	3013	108.773628855839	52.229142751989
16	3039	109.773628855839	52.357226898363
16	3068	110.773628855839	60.035570328918
16	3097	111.773628855839	54.065146365096
16	3123	112.773628855839	54.530081688013
16	3146	113.773628855839	59.842623686864
16	3178	114.773628855839	55.902140107022
16	3204	115.773628855839	56.258359105419
16	3236	116.773628855839	62.734988578708
16	3265	117.773628855839	57.97808209694
16	3291	118.773628855839	63.677162165356
16	3323	119.773628855839	59.001218022869
16	3346	120.773628855839	59.588716792947
16	3372	121.773628855839	66.50124861993
16	3401	122.773628855839	60.520644595797
16	3427	123.773628855839	61.371932326545
16	3459	124.773628855839	64.141148269687
16	3488	125.773628855839	64.968020813541
16	3514	126.773628855839	62.865296993272
16	3547	127.773628855839	63.405283035532
16	3579	128.773628855839	67.851065403749
16	3611	129.773628855839	64.319013654654
16	3640	130.773628855839	68.727897102216
16	3672	131.773628855839	69.346341258842
16	3704	132.773628855839	65.598681996937
16	3739	133.773628855839	71.127460662335
16	3771	134.773628855839	66.478867631183
16	3803	135.773628855839	67.377832855874
16	3832	136.773628855839	71.140270770483
16	3858	137.773628855839	72.126606192052
16	3887	138.773628855839	73.024461310527
16	3916	139.773628855839	73.049359376371
16	3948	140.773628855839	68.80424448353
16	3977	141.773628855839	73.229540457087
16	4000	142.773628855839	68.698923182738
16	4029	143.773628855839	69.641596256314
16	4052	144.773628855839	72.480508997503
16	4081	145.773628855839	70.713117759413
16	4119	146.773628855839	73.848172401107
16	4145	147.773628855839	72.113170872772
16	4171	148.773628855839	75.135588807774
16	4200	149.773628855839	72.76892560062
16	4223	150.773628855839	73.748735472474
16	4252	151.773628855839	74.708759173416
16	4275	152.773628855839	75.125880784549
16	4301	153.773628855839	76.37366152327
16	4324	154.773628855839	77.041251282306
16	4359	155.773628855839	77.913194516995
16	4394	156.773628855839	75.234310661704
16	4417	157.773628855839	75.699426285947
16	4446	158.773628855839	80.467775055075
16	4469	159.773628855839	81.116598965694
16	4501	160.773628855839	81.46095268133
16	4539	161.773628855839	77.195514502862
16	4565	162.773628855839	83.334564044905
16	4594	163.773628855839	78.362670986796
16	4620	164.773628855839	84.167690518356
16	4652	165.773628855839	84.784989569494
16	4678	166.773628855839	79.359430464289
16	4707	167.773628855839	80.260780155871
16	4730	168.773628855839	85.660752372492
16	4765	169.773628855839	86.59445497101
16	4791	170.773628855839	80.720475647912
16	4817	171.773628855839	81.633705165572
16	4843	172.773628855839	89.350059522928
16	4878	173.773628855839	89.170869995863
16	4916	174.773628855839	89.334772463893
16	4951	175.773628855839	82.984449236896
16	4980	176.773628855839	83.843118523335
16	5006	177.773628855839	92.026357623795
16	5032	178.773628855839	84.801337869156
16	5058	179.773628855839	93.315109686578
16	5087	180.773628855839	85.541404059047
16	5119	181.773628855839	94.574350736131
16	5148	182.773628855839	87.199749892021
16	5180	183.773628855839	87.892232168259
16	5209	184.773628855839	88.689881729692
16	5235	185.773628855839	96.088768379154
16	5258	186.773628855839	89.806752687733
16	5284	187.773628855839	90.786440228937
16	5310	188.773628855839	91.606187976952
16	5339	189.773628855839	99.23087273808
16	5368	190.773628855839	99.905532322551
16	5394	191.773628855839	92.840446904539
16	5423	192.773628855839	101.52197210845
16	5452	193.773628855839	93.997363872391
16	5478	194.773628855839	103.51257135779
16	5519	195.773628855839	94.668605998641
16	5548	196.773628855839	104.4117254477
16	5571	197.773628855839	96.100701845161
16	5599	198.773628855839	96.814680872653
16	5624	199.773628855839	105.5643977967
17	56	3.898860388484	3.0003
17	76	4.898860388484	3.077076868529
17	133	6.773628855839	3.0003
17	156	7.773628855839	5.914024643764
17	181	8.773628855839	4.44925151333
17	206	9.773628855839	7.126823503782
17	232	10.773628855839	5.472245086937
17	261	11.773628855839	5.987116923215
17	296	12.773628855839	6.633957784077
17	319	13.773628855839	7.575573114984
17	348	14.773628855839	10.247859449579
17	386	15.773628855839	10.209700148915
17	412	16.773628855839	10.634180952032
17	438	17.773628855839	8.260660835056
17	461	18.773628855839	10.410656529996
17	493	19.773628855839	8.691764717433
17	516	20.773628855839	12.092300389154
17	545	21.773628855839	9.93909060412
17	571	22.773628855839	13.608698284206
17	592	23.773628855839	11.09965775122
17	606	24.773628855839	14.959251935955
17	630	25.773628855839	14.28704073563
17	652	26.773628855839	12.291288486945
17	685	27.773628855839	13.21760313148
17	718	28.773628855839	13.806025135237
17	747	29.773628855839	14.714864109113
17	770	30.773628855839	18.633158168409
17	797	31.773628855839	15.670251600805
17	827	32.773628855839	20.134286159393
17	846	33.773628855839	18.536032073544
17	885	34.773628855839	19.515606485145
17	920	35.773628855839	16.520081672129
17	952	36.773628855839	21.05635834789
17	981	37.773628855839	20.268870684451
17	1004	38.773628855839	17.479189456217
17	1033	39.773628855839	20.763086425814
17	1062	40.773628855839	18.837480283539
17	1094	41.773628855839	22.611855572149
17	1117	42.773628855839	21.571541314207
17	1152	43.773628855839	20.232240726477
17	1175	44.773628855839	19.618238651584
17	1201	45.773628855839	19.883274230394
17	1234	46.773628855839	19.747335288684
17	1269	47.773628855839	22.726319445065
17	1301	48.773628855839	21.621460879246
17	1336	49.773628855839	24.107389985438
17	1365	50.773628855839	22.346233177022
17	1388	51.773628855839	23.191503496522
17	1411	52.773628855839	25.590854011448
17	1434	53.773628855839	24.420668838055
17	1469	54.773628855839	26.569422137099
17	1501	55.773628855839	24.999304157961
17	1527	56.773628855839	27.697100942057
17	1556	57.773628855839	26.261476866205
17	1582	58.773628855839	27.149530705572
17	1611	59.773628855839	27.613964985344
17	1644	60.773628855839	28.306684633191
17	1676	61.773628855839	29.100481351161
17	1714	62.773628855839	30.80268046407
17	1737	63.773628855839	29.765191166537
17	1766	64.773628855839	30.156108743354
17	1801	65.773628855839	31.010830716062
17	1827	66.773628855839	31.991862146861
17	1853	67.773628855839	35.160985762039
17	1885	68.773628855839	33.600091336184
17	1908	69.773628855839	35.672730936287
17	1931	70.773628855839	34.638710397118
17	1954	71.773628855839	35.387268465043
17	1979	72.773628855839	35.898711415735
17	2004	73.773628855839	39.42868244555
17	2033	74.773628855839	39.588347739938
17	2062	75.773628855839	40.426211250492
17	2080	76.773628855839	37.020796394457
17	2113	77.773628855839	41.479214573317
17	2141	78.773628855839	38.423050317639
17	2170	79.773628855839	38.977531822588
17	2196	80.773628855839	43.519666595949
17	2225	81.773628855839	40.402999415847
17	2251	82.773628855839	43.190753221735
17	2283	83.773628855839	43.045614267035
17	2312	84.773628855839	41.076648354153
17	2344	85.773628855839	44.096119683538
17	2370	86.773628855839	41.977735886602
17	2402	87.773628855839	44.900011884081
17	2425	88.773628855839	42.918901755114
17	2451	89.773628855839	46.795450658306
17	2483	90.773628855839	43.808304309427
17	2515	91.773628855839	48.73333536784
17	2541	92.773628855839	45.670275620999
17	2570	93.773628855839	45.281232931208
17	2599	94.773628855839	48.233121683385
17	2628	95.773628855839	46.829130870983
17	2663	96.773628855839	50.045695617367
17	2698	97.773628855839	47.984703077455
17	2730	98.773628855839	51.809488911284
17	2762	99.773628855839	52.366084882663
17	2791	100.773628855839	52.98712291838
17	2823	101.773628855839	53.051061358609
17	2849	102.773628855839	48.530206231279
17	2875	103.773628855839	49.295904712503
17	2907	104.773628855839	55.657948801305
17	2933	105.773628855839	50.287885467083
17	2959	106.773628855839	57.618765644892
17	2991	107.773628855839	58.041441334085
17	3014	108.773628855839	52.229142751989
17	3040	109.773628855839	52.357226898363
17	3069	110.773628855839	60.035570328918
17	3098	111.773628855839	54.065146365096
17	3124	112.773628855839	54.530081688013
17	3147	113.773628855839	59.842623686864
17	3179	114.773628855839	55.902140107022
17	3205	115.773628855839	56.258359105419
17	3237	116.773628855839	62.734988578708
17	3266	117.773628855839	57.97808209694
17	3292	118.773628855839	63.677162165356
17	3324	119.773628855839	59.001218022869
17	3347	120.773628855839	59.588716792947
17	3373	121.773628855839	66.50124861993
17	3402	122.773628855839	60.520644595797
17	3428	123.773628855839	61.371932326545
17	3460	124.773628855839	64.141148269687
17	3489	125.773628855839	64.968020813541
17	3515	126.773628855839	62.865296993272
17	3548	127.773628855839	63.405283035532
17	3580	128.773628855839	67.851065403749
17	3612	129.773628855839	64.319013654654
17	3641	130.773628855839	68.727897102216
17	3673	131.773628855839	69.346341258842
17	3705	132.773628855839	65.598681996937
17	3740	133.773628855839	71.127460662335
17	3772	134.773628855839	66.478867631183
17	3804	135.773628855839	67.377832855874
17	3833	136.773628855839	71.140270770483
17	3859	137.773628855839	72.126606192052
17	3888	138.773628855839	73.024461310527
17	3917	139.773628855839	73.049359376371
17	3949	140.773628855839	68.80424448353
17	3978	141.773628855839	73.229540457087
17	4001	142.773628855839	68.698923182738
17	4030	143.773628855839	69.641596256314
17	4053	144.773628855839	72.480508997503
17	4082	145.773628855839	70.713117759413
17	4120	146.773628855839	73.848172401107
17	4146	147.773628855839	72.113170872772
17	4172	148.773628855839	75.135588807774
17	4201	149.773628855839	72.76892560062
17	4224	150.773628855839	73.748735472474
17	4253	151.773628855839	74.708759173416
17	4276	152.773628855839	75.125880784549
17	4302	153.773628855839	76.37366152327
17	4325	154.773628855839	77.041251282306
17	4360	155.773628855839	77.913194516995
17	4395	156.773628855839	75.234310661704
17	4418	157.773628855839	75.699426285947
17	4447	158.773628855839	80.467775055075
17	4470	159.773628855839	81.116598965694
17	4502	160.773628855839	81.46095268133
17	4540	161.773628855839	77.195514502862
17	4566	162.773628855839	83.334564044905
17	4595	163.773628855839	78.362670986796
17	4621	164.773628855839	84.167690518356
17	4653	165.773628855839	84.784989569494
17	4679	166.773628855839	79.359430464289
17	4708	167.773628855839	80.260780155871
17	4731	168.773628855839	85.660752372492
17	4766	169.773628855839	86.59445497101
17	4792	170.773628855839	80.720475647912
17	4818	171.773628855839	81.633705165572
17	4844	172.773628855839	89.350059522928
17	4879	173.773628855839	89.170869995863
17	4917	174.773628855839	89.334772463893
17	4952	175.773628855839	82.984449236896
17	4981	176.773628855839	83.843118523335
17	5007	177.773628855839	92.026357623795
17	5033	178.773628855839	84.801337869156
17	5059	179.773628855839	93.315109686578
17	5088	180.773628855839	85.541404059047
17	5120	181.773628855839	94.574350736131
17	5149	182.773628855839	87.199749892021
17	5181	183.773628855839	87.892232168259
17	5210	184.773628855839	88.689881729692
17	5236	185.773628855839	96.088768379154
17	5259	186.773628855839	89.806752687733
17	5285	187.773628855839	90.786440228937
17	5311	188.773628855839	91.606187976952
17	5340	189.773628855839	99.23087273808
17	5369	190.773628855839	99.905532322551
17	5395	191.773628855839	92.840446904539
17	5424	192.773628855839	101.52197210845
17	5453	193.773628855839	93.997363872391
17	5479	194.773628855839	103.51257135779
17	5520	195.773628855839	94.668605998641
17	5549	196.773628855839	104.4117254477
17	5572	197.773628855839	96.100701845161
17	5600	198.773628855839	96.814680872653
17	5625	199.773628855839	105.5643977967

